1       15  C12ClH17N2           1                    
  1C 2 0  21  61  00  00  00  00  184  119    0--.... 
  2C 2 0  11  31  00  00  00  00  148  133    0--.... 
  3C 2 0  21  41  00  00  00  00  148  161    0--.... 
  4C 2 0  31  51  00  00  00  00  184  175    0--.... 
  5C 0 0  41  61 112  00  00  00  220  161    0---... 
  6C 0 0  11  51  72  00  00  00  220  133    0---... 
  7C 0 0  62  85  91  00  00  00  256  119    0---... 
  8N 3 1  75  00  00  00  00  00  256   91    0-..... 
  9C 0 0  71 102 121  00  00  00  292  133    0---... 
 10C 0 0  92 111 131  00  00  00  292  161    0---... 
 11N 0 0  52 101  00  00  00  00  256  175    0--.... 
 12C 2 0  91 141  00  00  00  00  328  119    0--.... 
 13C 2 0 101 141  00  00  00  00  328  175    0--.... 
 14C 2 0 121 131  00  00  00  00  357  146    0--.... 
 15CL0-1  00  00  00  00  00  00  254  222    0...... 
2       14  C12ClH22N            1                    
  1C 2 0  21  61  00  00  00  00  155  202    0--.... 
  2C 1 0  11  31  71  00  00  00  200  197    0---... 
  3C 2 0  21  41  00  00  00  00  250  205    0--.... 
  4C 1 0  31  51 101  00  00  00  288  179    0---... 
  5C 2 0  41  61  00  00  00  00  244  191    0--.... 
  6C 1 0  11  51  81  00  00  00  183  179    0---... 
  7C 2 0  21  91  00  00  00  00  194  152    0--.... 
  8C 2 0  61  91  00  00  00  00  180  134    0--.... 
  9C 0 0  71  81 101 115  00  00  235  118    0----.. 
 10C 2 0  41  91  00  00  00  00  288  138    0--.... 
 11C 1 0  95 125 135  00  00  00  235   90    0---... 
 12C 3 0 115  00  00  00  00  00  199   76    0-..... 
 13N 3 1 115  00  00  00  00  00  271   76    0-..... 
 14CL0-1  00  00  00  00  00  00  365  149    0...... 
3       29  C21H27N3O4S          1                    
  1C 1 0  22  61  00  00  00  00  120  118    0--.... 
  2C 0 0  12  31 135  00  00  00   84  132    0---... 
  3C 1 0  21  42  00  00  00  00   84  160    0--.... 
  4C 1 0  32  51  00  00  00  00  120  174    0--.... 
  5C 0 0  41  62 151  00  00  00  156  160    0---... 
  6C 0 0  11  52  71  00  00  00  156  132    0---... 
  7C 0 0  61  82 121  00  00  00  198  132    0---... 
  8C 0 0  72  91 151  00  00  00  198  160    0---... 
  9C 2 0  81 101  00  00  00  00  234  174    0--.... 
 10C 2 0  91 111  00  00  00  00  270  160    0--.... 
 11N 1 1 101 121 145  00  00  00  270  132    0---... 
 12C 2 0  71 111  00  00  00  00  234  118    0--.... 
 13C 3 0  25  00  00  00  00  00   48  118    0-..... 
 14C 3 0 115  00  00  00  00  00  306  118    0-..... 
 15N 0 0  51  81 165  00  00  00  177  184    0---... 
 16C 2 0 155 175  00  00  00  00  177  212    0--.... 
 17C 2 0 165 185  00  00  00  00  213  226    0--.... 
 18C 0 0 175 191 232  00  00  00  249  212    0---... 
 19C 1 0 181 202  00  00  00  00  249  184    0--.... 
 20C 1 0 192 211  00  00  00  00  285  170    0--.... 
 21C 0 0 201 222 245  00  00  00  321  184    0---... 
 22N 1 1 212 231  00  00  00  00  321  212    0--.... 
 23C 1 0 182 221  00  00  00  00  285  226    0--.... 
 24C 3 0 215  00  00  00  00  00  357  170    0-..... 
 25O 0-1 265  00  00  00  00  00  329   55    0-..... 
 26S 0 0 255 275 286 296  00  00  371   55    0----.. 
 27O 0-1 265  00  00  00  00  00  413   55    0-..... 
 28O 0 0 266  00  00  00  00  00  371   27    0-..... 
 29O 0 0 266  00  00  00  00  00  371   83    0-..... 
4       17  C13Cl2H20N2          1                    
  1C 1 0  22  61  00  00  00  00  158  119    0--.... 
  2C 0 0  12  31 135  00  00  00  122  133    0---... 
  3C 1 0  21  42  00  00  00  00  122  161    0--.... 
  4C 1 0  32  51  00  00  00  00  158  175    0--.... 
  5C 0 0  41  62 141  00  00  00  194  161    0---... 
  6C 0 0  11  52  71  00  00  00  194  133    0---... 
  7C 1 0  61  81 121  00  00  00  236  133    0---... 
  8C 1 0  71  91 141  00  00  00  236  161    0---... 
  9C 2 0  81 101  00  00  00  00  272  175    0--.... 
 10C 2 0  91 111  00  00  00  00  308  161    0--.... 
 11N 1 1 101 121 155  00  00  00  308  133    0---... 
 12C 2 0  71 111  00  00  00  00  272  119    0--.... 
 13C 3 0  25  00  00  00  00  00   86  119    0-..... 
 14N 2 1  51  81  00  00  00  00  215  185    0--.... 
 15C 3 0 115  00  00  00  00  00  344  119    0-..... 
 16CL0-1  00  00  00  00  00  00  303  224    0...... 
 17CL0-1  00  00  00  00  00  00  400  171    0...... 
5       30  C23H24N2O5           1                    
  1N 0 0  21  61 255  00  00  00  213  212    0---... 
  2C 2 0  11  31  00  00  00  00  263  220    0--.... 
  3C 0 0  21  41  91 125  00  00  301  194    0----.. 
  4C 2 0  31  51  00  00  00  00  257  206    0--.... 
  5N 0 0  41  71 235  00  00  00  196  194    0---... 
  6C 2 0  11  81  00  00  00  00  207  167    0--.... 
  7C 2 0  51  81  00  00  00  00  193  149    0--.... 
  8C 0 0  61  71  91 115  00  00  248  133    0----.. 
  9C 0 0  31  81 106  00  00  00  301  153    0---... 
 10O 0 0  96  00  00  00  00  00  337  139    0-..... 
 11C 0 0  85 132 171  00  00  00  248  105    0---... 
 12C 0 0  35 181 222  00  00  00  337  208    0---... 
 13C 1 0 112 141  00  00  00  00  212   91    0--.... 
 14C 1 0 131 152  00  00  00  00  212   63    0--.... 
 15C 1 0 142 161  00  00  00  00  248   49    0--.... 
 16C 1 0 151 172  00  00  00  00  284   63    0--.... 
 17C 1 0 111 162  00  00  00  00  284   91    0--.... 
 18C 1 0 121 192  00  00  00  00  373  194    0--.... 
 19C 1 0 182 201  00  00  00  00  409  208    0--.... 
 20C 1 0 191 212  00  00  00  00  409  236    0--.... 
 21C 1 0 202 221  00  00  00  00  373  250    0--.... 
 22C 1 0 122 211  00  00  00  00  337  236    0--.... 
 23C 2 0  55 245  00  00  00  00  160  208    0--.... 
 24C 0 0 235 276 285  00  00  00  124  194    0---... 
 25C 2 0  15 265  00  00  00  00  192  236    0--.... 
 26C 0 0 255 296 305  00  00  00  150  236    0---... 
 27O 0 0 246  00  00  00  00  00   90  208    0-..... 
 28O 1 0 245  00  00  00  00  00  121  166    0-..... 
 29O 0 0 266  00  00  00  00  00  129  260    0-..... 
 30O 1 0 265  00  00  00  00  00  129  212    0-..... 
6       14  C11H20N2O            1                    
  1N 0 0  21  61 145  00  00  00  200  177    0---... 
  2C 2 0  11  31  00  00  00  00  250  185    0--.... 
  3C 0 0  21  41  91 125  00  00  288  159    0----.. 
  4C 2 0  31  51  00  00  00  00  244  171    0--.... 
  5N 0 0  41  71 135  00  00  00  183  159    0---... 
  6C 2 0  11  81  00  00  00  00  194  132    0--.... 
  7C 2 0  51  81  00  00  00  00  180  114    0--.... 
  8C 0 0  61  71  91 115  00  00  235   98    0----.. 
  9C 0 0  31  81 106  00  00  00  288  118    0---... 
 10O 0 0  96  00  00  00  00  00  324  104    0-..... 
 11C 3 0  85  00  00  00  00  00  235   70    0-..... 
 12C 3 0  35  00  00  00  00  00  324  173    0-..... 
 13C 3 0  55  00  00  00  00  00  147  173    0-..... 
 14C 3 0  15  00  00  00  00  00  164  191    0-..... 
7       17  BrC15H20N            1                    
  1C 2 0  21  61  00  00  00  00  175  226    0--.... 
  2N 1 1  11  31  75  00  00  00  139  212    0---... 
  3C 2 0  21  41  00  00  00  00  139  184    0--.... 
  4C 0 0  31  52 175  00  00  00  175  170    0---... 
  5C 0 0  42  61  85  00  00  00  211  184    0---... 
  6C 2 0  11  51  00  00  00  00  211  212    0--.... 
  7C 3 0  25  00  00  00  00  00  103  226    0-..... 
  8C 1 0  55  96  00  00  00  00  247  170    0--.... 
  9C 1 0  86 105  00  00  00  00  283  184    0--.... 
 10C 0 0  95 121 132  00  00  00  319  170    0---... 
 11C 1 0 122 151  00  00  00  00  391  170    0--.... 
 12C 1 0 101 112  00  00  00  00  355  184    0--.... 
 13C 1 0 102 141  00  00  00  00  319  142    0--.... 
 14C 1 0 131 152  00  00  00  00  355  128    0--.... 
 15C 1 0 111 142  00  00  00  00  391  142    0--.... 
 16BR0-1  00  00  00  00  00  00  145  130    0...... 
 17C 3 0  45  00  00  00  00  00  175  142    0-..... 
8       17  C13ClH17N2O          1                    
  1C 2 0  21  61  00  00  00  00  176  219    0--.... 
  2N 1 1  11  31  75  00  00  00  140  205    0---... 
  3C 2 0  21  41  00  00  00  00  140  177    0--.... 
  4C 1 0  31  52  00  00  00  00  176  163    0--.... 
  5C 0 0  42  61  85  00  00  00  212  177    0---... 
  6C 2 0  11  51  00  00  00  00  212  205    0--.... 
  7C 3 0  25  00  00  00  00  00  104  219    0-..... 
  8C 0 0  55  95 176  00  00  00  248  163    0---... 
  9N 1 0  85 105  00  00  00  00  284  177    0--.... 
 10C 0 0  95 121 132  00  00  00  320  163    0---... 
 11C 1 0 122 151  00  00  00  00  392  163    0--.... 
 12C 1 0 101 112  00  00  00  00  356  177    0--.... 
 13C 1 0 102 141  00  00  00  00  320  135    0--.... 
 14C 1 0 131 152  00  00  00  00  356  121    0--.... 
 15C 1 0 111 142  00  00  00  00  392  135    0--.... 
 16CL0-1  00  00  00  00  00  00  146  123    0...... 
 17O 0 0  86  00  00  00  00  00  248  135    0-..... 
9       20  C18H19NO             1                    
  1C 3 0  25  00  00  00  00  00   87  207    0-..... 
  2N 0 0  15  31  71  00  00  00  123  193    0---... 
  3C 2 0  21  41  00  00  00  00  123  165    0--.... 
  4C 1 0  31  52  00  00  00  00  159  151    0--.... 
  5C 0 0  42  61  85  00  00  00  195  165    0---... 
  6C 2 0  51  71  00  00  00  00  195  193    0--.... 
  7C 2 0  21  61  00  00  00  00  159  207    0--.... 
  8C 1 0  55  96  00  00  00  00  231  151    0--.... 
  9C 1 0  86 105  00  00  00  00  267  165    0--.... 
 10C 0 0  95 112 201  00  00  00  303  151    0---... 
 11C 0 0 102 125 131  00  00  00  303  123    0---... 
 12O 1 0 115  00  00  00  00  00  267  109    0-..... 
 13C 1 0 111 142  00  00  00  00  339  109    0--.... 
 14C 1 0 132 151  00  00  00  00  375  123    0--.... 
 15C 0 0 141 161 202  00  00  00  375  151    0---... 
 16C 1 0 151 172  00  00  00  00  411  165    0--.... 
 17C 1 0 162 181  00  00  00  00  411  193    0--.... 
 18C 1 0 171 192  00  00  00  00  375  207    0--.... 
 19C 1 0 182 201  00  00  00  00  339  193    0--.... 
 20C 0 0 101 152 191  00  00  00  339  165    0---... 
10      19  C17H20N2             1                    
  1C 3 0  25  00  00  00  00  00   83  203    0-..... 
  2N 0 0  15  31  71  00  00  00  119  189    0---... 
  3C 2 0  21  41  00  00  00  00  119  161    0--.... 
  4C 1 0  31  52  00  00  00  00  155  147    0--.... 
  5C 0 0  42  61  85  00  00  00  191  161    0---... 
  6C 2 0  51  71  00  00  00  00  191  189    0--.... 
  7C 2 0  21  61  00  00  00  00  155  203    0--.... 
  8C 1 0  55  96  00  00  00  00  227  147    0--.... 
  9C 1 0  86 105  00  00  00  00  263  161    0--.... 
 10C 0 0  95 112 191  00  00  00  299  147    0---... 
 11C 0 0 102 125 131  00  00  00  299  119    0---... 
 12C 3 0 115  00  00  00  00  00  263  105    0-..... 
 13N 1 0 111 141  00  00  00  00  371  119    0--.... 
 14C 0 0 131 151 192  00  00  00  371  147    0---... 
 15C 1 0 141 162  00  00  00  00  407  161    0--.... 
 16C 1 0 152 171  00  00  00  00  407  189    0--.... 
 17C 1 0 161 182  00  00  00  00  371  203    0--.... 
 18C 1 0 172 191  00  00  00  00  335  189    0--.... 
 19C 0 0 101 142 181  00  00  00  335  161    0---... 
11      16  C12H13NO3            1                    
  1C 1 0  21  62  00  00  00  00  160  187    0--.... 
  2C 1 0  11  32  00  00  00  00  124  173    0--.... 
  3C 1 0  22  41  00  00  00  00  124  145    0--.... 
  4C 1 0  31  52  00  00  00  00  160  131    0--.... 
  5C 0 0  42  61  71  00  00  00  196  145    0---... 
  6C 0 0  12  51  81  00  00  00  196  173    0---... 
  7C 1 0  51  91 121  00  00  00  232  131    0---... 
  8C 1 0  61  91 111  00  00  00  232  187    0---... 
  9N 0 0  71  81 101  00  00  00  269  159    0---... 
 10C 0 0  91 135 151 161  00  00  311  159    0----.. 
 11O 0 0  81 161  00  00  00  00  268  201    0--.... 
 12O 0 0  71 151  00  00  00  00  268  117    0--.... 
 13C 2 0 105 145  00  00  00  00  347  173    0--.... 
 14O 1 0 135  00  00  00  00  00  383  159    0-..... 
 15C 2 0 101 121  00  00  00  00  304  131    0--.... 
 16C 2 0 101 111  00  00  00  00  304  187    0--.... 
12      13  C10H16N2O            1                    
  1C 2 0  21  61  00  00  00  00  155  182    0--.... 
  2N 0 0  11  31  71  00  00  00  200  177    0---... 
  3C 2 0  21  41  00  00  00  00  250  185    0--.... 
  4C 0 0  31  51 101 135  00  00  288  159    0----.. 
  5C 2 0  41  61  00  00  00  00  244  171    0--.... 
  6N 0 0  11  51  81  00  00  00  183  159    0---... 
  7C 2 0  21  91  00  00  00  00  194  132    0--.... 
  8C 2 0  61  91  00  00  00  00  180  114    0--.... 
  9C 0 0  71  81 101 125  00  00  235   98    0----.. 
 10C 0 0  41  91 116  00  00  00  288  118    0---... 
 11O 0 0 106  00  00  00  00  00  324  104    0-..... 
 12C 3 0  95  00  00  00  00  00  235   70    0-..... 
 13C 3 0  45  00  00  00  00  00  324  173    0-..... 
13      23  C20H20N2O            1                    
  1C 2 0  21  61  00  00  00  00  151  228    0--.... 
  2N 0 0  11  31  71  00  00  00  196  223    0---... 
  3C 2 0  21  41  00  00  00  00  246  231    0--.... 
  4C 0 0  31  51 101 135  00  00  284  205    0----.. 
  5C 2 0  41  61  00  00  00  00  240  217    0--.... 
  6N 0 0  11  51  81  00  00  00  179  205    0---... 
  7C 2 0  21  91  00  00  00  00  190  178    0--.... 
  8C 2 0  61  91  00  00  00  00  176  160    0--.... 
  9C 0 0  71  81 101 125  00  00  231  144    0----.. 
 10C 0 0  41  91 116  00  00  00  284  164    0---... 
 11O 0 0 106  00  00  00  00  00  320  150    0-..... 
 12C 0 0  95 142 181  00  00  00  231  116    0---... 
 13C 0 0  45 191 232  00  00  00  320  219    0---... 
 14C 1 0 122 151  00  00  00  00  195  102    0--.... 
 15C 1 0 141 162  00  00  00  00  195   74    0--.... 
 16C 1 0 152 171  00  00  00  00  231   60    0--.... 
 17C 1 0 161 182  00  00  00  00  267   74    0--.... 
 18C 1 0 121 172  00  00  00  00  267  102    0--.... 
 19C 1 0 131 202  00  00  00  00  356  205    0--.... 
 20C 1 0 192 211  00  00  00  00  392  219    0--.... 
 21C 1 0 201 222  00  00  00  00  392  247    0--.... 
 22C 1 0 212 231  00  00  00  00  356  261    0--.... 
 23C 1 0 132 221  00  00  00  00  320  247    0--.... 
14      22  C20H22N2             1                    
  1N 0 0  21  61 101  00  00  00  147  175    0---... 
  2C 2 0  11  31  00  00  00  00  147  147    0--.... 
  3C 0 0  21  41  81 175  00  00  183  133    0----.. 
  4C 2 0  31  51  00  00  00  00  219  147    0--.... 
  5C 0 0  41  61  91 115  00  00  219  175    0----.. 
  6C 2 0  11  51  00  00  00  00  183  189    0--.... 
  7N 0 0  81  91 101  00  00  00  168  199    0---... 
  8C 2 0  31  71  00  00  00  00  168  171    0--.... 
  9C 2 0  51  71  00  00  00  00  204  213    0--.... 
 10C 2 0  11  71  00  00  00  00  126  199    0--.... 
 11C 0 0  55 122 161  00  00  00  255  189    0---... 
 12C 1 0 112 131  00  00  00  00  291  175    0--.... 
 13C 1 0 121 142  00  00  00  00  327  189    0--.... 
 14C 1 0 132 151  00  00  00  00  327  217    0--.... 
 15C 1 0 141 162  00  00  00  00  291  231    0--.... 
 16C 1 0 111 152  00  00  00  00  255  217    0--.... 
 17C 0 0  35 182 221  00  00  00  183  105    0---... 
 18C 1 0 172 191  00  00  00  00  147   91    0--.... 
 19C 1 0 181 202  00  00  00  00  147   63    0--.... 
 20C 1 0 192 211  00  00  00  00  183   49    0--.... 
 21C 1 0 201 222  00  00  00  00  219   63    0--.... 
 22C 1 0 171 212  00  00  00  00  219   91    0--.... 
15      17  C14H19IN2            1                    
  1C 1 0  22  61  00  00  00  00  158  118    0--.... 
  2C 0 0  12  31 135  00  00  00  122  132    0---... 
  3C 1 0  21  42  00  00  00  00  122  160    0--.... 
  4C 1 0  32  51  00  00  00  00  158  174    0--.... 
  5C 0 0  41  62 141  00  00  00  194  160    0---... 
  6C 0 0  11  52  71  00  00  00  194  132    0---... 
  7C 0 0  61  82 121  00  00  00  236  132    0---... 
  8C 0 0  72  91 141  00  00  00  236  160    0---... 
  9C 2 0  81 101  00  00  00  00  272  174    0--.... 
 10C 2 0  91 111  00  00  00  00  308  160    0--.... 
 11N 0 1 101 121 155 165  00  00  308  132    0----.. 
 12C 2 0  71 111  00  00  00  00  272  118    0--.... 
 13C 3 0  25  00  00  00  00  00   86  118    0-..... 
 14N 1 0  51  81  00  00  00  00  215  184    0--.... 
 15C 3 0 115  00  00  00  00  00  329  108    0-..... 
 16C 3 0 115  00  00  00  00  00  344  146    0-..... 
 17I 0-1  00  00  00  00  00  00  376  204    0...... 
16      15  C13H16N2             1                    
  1C 1 0  22  61  00  00  00  00  167  119    0--.... 
  2C 0 0  12  31 135  00  00  00  131  133    0---... 
  3C 1 0  21  42  00  00  00  00  131  161    0--.... 
  4C 1 0  32  51  00  00  00  00  167  175    0--.... 
  5C 0 0  41  62 151  00  00  00  203  161    0---... 
  6C 0 0  11  52  71  00  00  00  203  133    0---... 
  7C 0 0  61  82 121  00  00  00  245  133    0---... 
  8C 0 0  72  91 151  00  00  00  245  161    0---... 
  9C 2 0  81 101  00  00  00  00  281  175    0--.... 
 10C 2 0  91 111  00  00  00  00  317  161    0--.... 
 11N 0 0 101 121 145  00  00  00  317  133    0---... 
 12C 2 0  71 111  00  00  00  00  281  119    0--.... 
 13C 3 0  25  00  00  00  00  00   95  119    0-..... 
 14C 3 0 115  00  00  00  00  00  353  119    0-..... 
 15N 1 0  51  81  00  00  00  00  224  185    0--.... 
17      20  C16ClH20NO2          1                    
  1C 2 0  21  61  00  00  00  00  132  223    0--.... 
  2C 1 0  11  31  71  00  00  00  177  218    0---... 
  3C 2 0  21  41  00  00  00  00  227  226    0--.... 
  4C 1 0  31  51 101  00  00  00  265  200    0---... 
  5C 2 0  41  61  00  00  00  00  221  212    0--.... 
  6C 1 0  11  51  81  00  00  00  160  200    0---... 
  7C 2 0  21  91  00  00  00  00  171  173    0--.... 
  8C 2 0  61  91  00  00  00  00  157  155    0--.... 
  9C 0 0  71  81 101 115  00  00  212  139    0----.. 
 10C 2 0  41  91  00  00  00  00  265  159    0--.... 
 11O 0 0  95 125  00  00  00  00  212  111    0--.... 
 12C 0 0 115 136 145  00  00  00  248   97    0---... 
 13O 0 0 126  00  00  00  00  00  248   69    0-..... 
 14C 0 0 125 151 192  00  00  00  284  111    0---... 
 15C 1 0 141 162  00  00  00  00  320   97    0--.... 
 16C 1 0 152 171  00  00  00  00  356  111    0--.... 
 17N 1 1 161 182  00  00  00  00  356  139    0--.... 
 18C 1 0 172 191  00  00  00  00  320  153    0--.... 
 19C 1 0 142 181  00  00  00  00  284  139    0--.... 
 20CL0-1  00  00  00  00  00  00  358  189    0...... 
18      21  C16ClH18NO3          1                    
  1C 0 0  21  61 216  00  00  00  170  226    0---... 
  2C 1 0  11  31  71  00  00  00  215  221    0---... 
  3C 2 0  21  41  00  00  00  00  265  229    0--.... 
  4C 1 0  31  51 101  00  00  00  303  203    0---... 
  5C 2 0  41  61  00  00  00  00  259  215    0--.... 
  6C 1 0  11  51  81  00  00  00  198  203    0---... 
  7C 2 0  21  91  00  00  00  00  209  176    0--.... 
  8C 2 0  61  91  00  00  00  00  195  158    0--.... 
  9C 0 0  71  81 101 115  00  00  250  142    0----.. 
 10C 2 0  41  91  00  00  00  00  303  162    0--.... 
 11O 0 0  95 125  00  00  00  00  250  114    0--.... 
 12C 0 0 115 136 145  00  00  00  286  100    0---... 
 13O 0 0 126  00  00  00  00  00  286   72    0-..... 
 14C 0 0 125 151 192  00  00  00  322  114    0---... 
 15C 1 0 141 162  00  00  00  00  358  100    0--.... 
 16C 1 0 152 171  00  00  00  00  394  114    0--.... 
 17N 1 1 161 182  00  00  00  00  394  142    0--.... 
 18C 1 0 172 191  00  00  00  00  358  156    0--.... 
 19C 1 0 142 181  00  00  00  00  322  142    0--.... 
 20CL0-1  00  00  00  00  00  00  396  192    0...... 
 21O 0 0  16  00  00  00  00  00  134  240    0-..... 
19      12  C10H16N2             1                    
  1C 2 0  21  61  00  00  00  00  155  196    0--.... 
  2C 1 0  11  31  71  00  00  00  200  191    0---... 
  3C 2 0  21  41  00  00  00  00  250  199    0--.... 
  4C 1 0  31  51 101  00  00  00  288  173    0---... 
  5C 2 0  41  61  00  00  00  00  244  185    0--.... 
  6C 1 0  11  51  81  00  00  00  183  173    0---... 
  7C 2 0  21  91  00  00  00  00  194  146    0--.... 
  8C 2 0  61  91  00  00  00  00  180  128    0--.... 
  9C 1 0  71  81 101  00  00  00  235  112    0---... 
 10C 0 0  41  91 111 121  00  00  288  132    0----.. 
 11N 1 0 101 121  00  00  00  00  309  108    0--.... 
 12N 1 0 101 111  00  00  00  00  324  146    0--.... 
20      17  C12H18O5             1                    
  1C 2 0  21  61  00  00  00  00  138  145    0--.... 
  2C 2 0  11  31  00  00  00  00  159  121    0--.... 
  3C 1 0  21  41  71  00  00  00  201  121    0-U-... 
  4O 0 0  31  51  00  00  00  00  222  145    0DU.... 
  5C 1 0  41  61  91  00  00  00  201  169    0D--... 
  6C 1 0  11  51 105  00  00  00  159  169    0--D... 
  7C 1 0  31  81 115  00  00  00  243  121    0--D... 
  8C 2 0  71  91  00  00  00  00  264  145    0--.... 
  9C 2 0  51  81  00  00  00  00  243  169    0--.... 
 10O 0 0  65 125  00  00  00  00  138  193    0U-.... 
 11O 0 0  75 155  00  00  00  00  264   97    0U-.... 
 12C 0 0 105 135 146  00  00  00  115  219    0---... 
 13C 3 0 125  00  00  00  00  00   93  245    0-..... 
 14O 0 0 126  00  00  00  00  00  148  234    0-..... 
 15C 0 0 115 165 176  00  00  00  287   71    0---... 
 16C 3 0 155  00  00  00  00  00  309   45    0-..... 
 17O 0 0 156  00  00  00  00  00  254   56    0-..... 
21      11  C8H14O3              1                    
  1C 2 0  21  61  00  00  00  00  138  145    0--.... 
  2C 2 0  11  31  00  00  00  00  159  121    0--.... 
  3C 1 0  21  41  71  00  00  00  201  121    0-U-... 
  4O 0 0  31  51  00  00  00  00  222  145    0DU.... 
  5C 1 0  41  61  91  00  00  00  201  169    0D--... 
  6C 1 0  11  51 105  00  00  00  159  169    0--D... 
  7C 1 0  31  81 115  00  00  00  243  121    0--D... 
  8C 2 0  71  91  00  00  00  00  264  145    0--.... 
  9C 2 0  51  81  00  00  00  00  243  169    0--.... 
 10O 1 0  65  00  00  00  00  00  138  193    0U..... 
 11O 1 0  75  00  00  00  00  00  264   97    0U..... 
22      18  C14H15IN2O           1                    
  1C 1 0  22  61  00  00  00  00  110  137    0--.... 
  2C 1 0  12  31  00  00  00  00  146  123    0--.... 
  3C 0 0  21  42 125  00  00  00  182  137    0---... 
  4C 1 0  32  51  00  00  00  00  182  165    0--.... 
  5C 1 0  41  62  00  00  00  00  146  179    0--.... 
  6N 0 1  11  52 115  00  00  00  110  165    0---... 
  7N 1 0  85 125  00  00  00  00  254  137    0--.... 
  8C 0 0  75  92 141  00  00  00  290  123    0---... 
  9C 0 0  82 101 175  00  00  00  326  137    0---... 
 10C 1 0  91 162  00  00  00  00  362  123    0--.... 
 11C 3 0  65  00  00  00  00  00   74  179    0-..... 
 12C 0 0  35  75 136  00  00  00  218  123    0---... 
 13O 0 0 126  00  00  00  00  00  218   95    0-..... 
 14C 1 0  81 152  00  00  00  00  290   95    0--.... 
 15C 1 0 142 161  00  00  00  00  326   81    0--.... 
 16C 1 0 102 151  00  00  00  00  362   95    0--.... 
 17C 3 0  95  00  00  00  00  00  326  165    0-..... 
 18I 0-1  00  00  00  00  00  00  139  214    0...... 
23      16  C13H12N2O            1                    
  1C 1 0  22  61  00  00  00  00  118  177    0--.... 
  2N 0 0  12  31  00  00  00  00   82  163    0--.... 
  3C 1 0  21  42  00  00  00  00   82  135    0--.... 
  4C 1 0  32  51  00  00  00  00  118  121    0--.... 
  5C 0 0  41  62  75  00  00  00  154  135    0---... 
  6C 1 0  11  52  00  00  00  00  154  163    0--.... 
  7C 0 0  55  86  95  00  00  00  190  121    0---... 
  8O 0 0  76  00  00  00  00  00  190   93    0-..... 
  9N 1 0  75 105  00  00  00  00  226  135    0--.... 
 10C 0 0  95 112 161  00  00  00  268  135    0---... 
 11C 1 0 102 121  00  00  00  00  289  111    0--.... 
 12C 1 0 111 132  00  00  00  00  331  111    0--.... 
 13C 0 0 122 145 151  00  00  00  352  135    0---... 
 14C 3 0 135  00  00  00  00  00  394  135    0-..... 
 15C 1 0 131 162  00  00  00  00  331  159    0--.... 
 16C 1 0 101 152  00  00  00  00  289  159    0--.... 
24      18  C14ClH19N2O          1                    
  1C 3 0  25  00  00  00  00  00   96  208    0-..... 
  2N 1 1  15  31  71  00  00  00  132  194    0---... 
  3C 2 0  21  41  00  00  00  00  132  166    0--.... 
  4C 1 0  31  52  00  00  00  00  168  152    0--.... 
  5C 0 0  42  61  85  00  00  00  204  166    0---... 
  6C 2 0  51  71  00  00  00  00  204  194    0--.... 
  7C 2 0  21  61  00  00  00  00  168  208    0--.... 
  8C 0 0  55  95 166  00  00  00  240  152    0---... 
  9N 1 0  85 105  00  00  00  00  276  166    0--.... 
 10C 0 0  95 112 151  00  00  00  312  152    0---... 
 11C 1 0 102 171  00  00  00  00  312  124    0--.... 
 12C 1 0 131 172  00  00  00  00  384  124    0--.... 
 13C 1 0 121 152  00  00  00  00  384  152    0--.... 
 14C 3 0 155  00  00  00  00  00  348  194    0-..... 
 15C 0 0 101 132 145  00  00  00  348  166    0---... 
 16O 0 0  86  00  00  00  00  00  240  124    0-..... 
 17C 1 0 111 122  00  00  00  00  348  110    0--.... 
 18CL0-1  00  00  00  00  00  00  259  223    0...... 
25      19  C15ClH21N2O          1                    
  1C 2 0  21  61  00  00  00  00  172  180    0--.... 
  2N 1 1  11  31 145  00  00  00  136  166    0---... 
  3C 2 0  21  41  00  00  00  00  136  138    0--.... 
  4C 2 0  31  51  00  00  00  00  172  124    0--.... 
  5C 0 0  41  62  75  00  00  00  208  138    0---... 
  6C 1 0  11  52  00  00  00  00  208  166    0--.... 
  7C 0 0  55  86  95  00  00  00  244  124    0---... 
  8O 0 0  76  00  00  00  00  00  244   96    0-..... 
  9N 1 0  75 105  00  00  00  00  280  138    0--.... 
 10C 1 0  95 115 135  00  00  00  322  138    0---... 
 11C 3 0 105  00  00  00  00  00  343  114    0-..... 
 12C 1 0 132 181  00  00  00  00  385  162    0--.... 
 13C 0 0 105 122 151  00  00  00  343  162    0---... 
 14C 3 0  25  00  00  00  00  00  100  180    0-..... 
 15C 1 0 131 162  00  00  00  00  322  186    0--.... 
 16C 1 0 152 171  00  00  00  00  343  210    0--.... 
 17C 1 0 161 182  00  00  00  00  385  210    0--.... 
 18C 1 0 121 172  00  00  00  00  406  186    0--.... 
 19CL0-1  00  00  00  00  00  00  149  224    0...... 
26      18  C14H15IN2O           1                    
  1C 1 0  22  61  00  00  00  00  154  182    0--.... 
  2N 0 1  12  31 105  00  00  00  118  168    0---... 
  3C 1 0  21  42  00  00  00  00  118  140    0--.... 
  4C 1 0  32  51  00  00  00  00  154  126    0--.... 
  5C 0 0  41  62  75  00  00  00  190  140    0---... 
  6C 1 0  11  52  00  00  00  00  190  168    0--.... 
  7C 0 0  55  86  95  00  00  00  226  126    0---... 
  8O 0 0  76  00  00  00  00  00  226   98    0-..... 
  9N 1 0  75 125  00  00  00  00  262  140    0--.... 
 10C 3 0  25  00  00  00  00  00   82  182    0-..... 
 11I 0-1  00  00  00  00  00  00  168  233    0...... 
 12C 0 0  95 131 172  00  00  00  298  126    0---... 
 13C 1 0 121 142  00  00  00  00  298   98    0--.... 
 14C 1 0 132 151  00  00  00  00  334   84    0--.... 
 15C 0 0 141 162 185  00  00  00  370   98    0---... 
 16C 1 0 152 171  00  00  00  00  370  126    0--.... 
 17C 1 0 161 122  00  00  00  00  334  140    0--.... 
 18C 3 0 155  00  00  00  00  00  406   84    0-..... 
27      18  BrC13H12IN2O         1                    
  1C 1 0  22  61  00  00  00  00  171  189    0--.... 
  2N 0 1  12  31 105  00  00  00  135  175    0---... 
  3C 1 0  21  42  00  00  00  00  135  147    0--.... 
  4C 1 0  32  51  00  00  00  00  171  133    0--.... 
  5C 0 0  41  62  75  00  00  00  207  147    0---... 
  6C 1 0  11  52  00  00  00  00  207  175    0--.... 
  7C 0 0  55  86  95  00  00  00  243  133    0---... 
  8O 0 0  76  00  00  00  00  00  243  105    0-..... 
  9N 1 0  75 125  00  00  00  00  279  147    0--.... 
 10C 3 0  25  00  00  00  00  00   99  189    0-..... 
 11I 0-1  00  00  00  00  00  00  185  240    0...... 
 12C 0 0  95 131 182  00  00  00  315  133    0---... 
 13C 1 0 121 142  00  00  00  00  315  105    0--.... 
 14C 1 0 132 151  00  00  00  00  351   91    0--.... 
 15C 0 0 141 165 172  00  00  00  387  105    0---... 
 16BR0 0 155  00  00  00  00  00  423   91    0-..... 
 17C 1 0 152 181  00  00  00  00  387  133    0--.... 
 18C 1 0 171 122  00  00  00  00  351  147    0--.... 
28      18  C14ClH19N2O          1                    
  1C 2 0  21  61  00  00  00  00  165  190    0--.... 
  2N 1 1  11  31 105  00  00  00  129  176    0---... 
  3C 2 0  21  41  00  00  00  00  129  148    0--.... 
  4C 2 0  31  51  00  00  00  00  165  134    0--.... 
  5C 0 0  41  62  75  00  00  00  201  148    0---... 
  6C 1 0  11  52  00  00  00  00  201  176    0--.... 
  7C 0 0  55  86  95  00  00  00  237  134    0---... 
  8O 0 0  76  00  00  00  00  00  237  106    0-..... 
  9N 1 0  75 125  00  00  00  00  273  148    0--.... 
 10C 3 0  25  00  00  00  00  00   93  190    0-..... 
 11CL0-1  00  00  00  00  00  00  148  232    0...... 
 12C 0 0  95 131 182  00  00  00  309  134    0---... 
 13C 1 0 121 142  00  00  00  00  309  106    0--.... 
 14C 1 0 132 151  00  00  00  00  345   92    0--.... 
 15C 0 0 141 165 172  00  00  00  381  106    0---... 
 16C 3 0 155  00  00  00  00  00  417   92    0-..... 
 17C 1 0 152 181  00  00  00  00  381  134    0--.... 
 18C 1 0 171 122  00  00  00  00  345  148    0--.... 
29      17  C14H14N2O            1                    
  1C 1 0  22  61  00  00  00  00  118  177    0--.... 
  2N 0 0  12  31  00  00  00  00   82  163    0--.... 
  3C 1 0  21  42  00  00  00  00   82  135    0--.... 
  4C 1 0  32  51  00  00  00  00  118  121    0--.... 
  5C 0 0  41  62  75  00  00  00  154  135    0---... 
  6C 1 0  11  52  00  00  00  00  154  163    0--.... 
  7C 0 0  55  86  95  00  00  00  190  121    0---... 
  8O 0 0  76  00  00  00  00  00  190   93    0-..... 
  9N 1 0  75 105  00  00  00  00  226  135    0--.... 
 10C 2 0  95 115  00  00  00  00  262  121    0--.... 
 11C 2 0 105 125  00  00  00  00  298  135    0--.... 
 12C 0 0 115 132 171  00  00  00  334  121    0---... 
 13C 1 0 122 141  00  00  00  00  334   93    0--.... 
 14C 1 0 131 152  00  00  00  00  370   79    0--.... 
 15C 1 0 142 161  00  00  00  00  406   93    0--.... 
 16C 1 0 151 172  00  00  00  00  406  121    0--.... 
 17C 1 0 121 162  00  00  00  00  370  135    0--.... 
30      17  C13H13IN2O           1                    
  1C 3 0  25  00  00  00  00  00   55  222    0-..... 
  2N 0 1  15  32  71  00  00  00   91  208    0---... 
  3C 1 0  22  41  00  00  00  00   91  180    0--.... 
  4C 1 0  31  52  00  00  00  00  127  166    0--.... 
  5C 0 0  42  61  85  00  00  00  163  180    0---... 
  6C 1 0  51  72  00  00  00  00  163  208    0--.... 
  7C 1 0  21  62  00  00  00  00  127  222    0--.... 
  8C 0 0  55  95 136  00  00  00  199  166    0---... 
  9N 1 0  85 105  00  00  00  00  235  180    0--.... 
 10C 0 0  95 122 161  00  00  00  271  166    0---... 
 11C 1 0 121 142  00  00  00  00  343  166    0--.... 
 12C 1 0 102 111  00  00  00  00  307  180    0--.... 
 13O 0 0  86  00  00  00  00  00  199  138    0-..... 
 14C 1 0 112 171  00  00  00  00  343  138    0--.... 
 15I 0-1  00  00  00  00  00  00  230  220    0...... 
 16C 1 0 101 172  00  00  00  00  271  138    0--.... 
 17C 1 0 162 141  00  00  00  00  307  124    0--.... 
31      17  C14H14N2O            1                    
  1C 1 0  21  62  00  00  00  00  143  186    0--.... 
  2N 0 0  11  32  00  00  00  00  107  172    0--.... 
  3C 1 0  22  41  00  00  00  00  107  144    0--.... 
  4C 1 0  31  52  00  00  00  00  143  130    0--.... 
  5C 0 0  42  61  75  00  00  00  179  144    0---... 
  6C 1 0  12  51  00  00  00  00  179  172    0--.... 
  7C 0 0  55  86  95  00  00  00  215  130    0---... 
  8O 0 0  76  00  00  00  00  00  215  102    0-..... 
  9N 1 0  75 105  00  00  00  00  251  144    0--.... 
 10C 1 0  95 115 125  00  00  00  287  130    0---... 
 11C 3 0 105  00  00  00  00  00  287  102    0-..... 
 12C 0 0 105 131 172  00  00  00  323  144    0---... 
 13C 1 0 121 142  00  00  00  00  359  130    0--.... 
 14C 1 0 132 151  00  00  00  00  395  144    0--.... 
 15C 1 0 141 162  00  00  00  00  395  172    0--.... 
 16C 1 0 152 171  00  00  00  00  359  186    0--.... 
 17C 1 0 161 122  00  00  00  00  323  172    0--.... 
32      19  C15ClH21N2O          1                    
  1C 3 0  25  00  00  00  00  00   51  197    0-..... 
  2N 1 1  15  31  71  00  00  00   87  183    0---... 
  3C 2 0  21  41  00  00  00  00   87  155    0--.... 
  4C 1 0  31  52  00  00  00  00  123  141    0--.... 
  5C 0 0  42  61  85  00  00  00  159  155    0---... 
  6C 2 0  51  71  00  00  00  00  159  183    0--.... 
  7C 2 0  21  61  00  00  00  00  123  197    0--.... 
  8C 0 0  55  95 136  00  00  00  195  141    0---... 
  9N 1 0  85 105  00  00  00  00  231  155    0--.... 
 10C 2 0  95 125  00  00  00  00  267  141    0--.... 
 11C 0 0 125 142 181  00  00  00  339  141    0---... 
 12C 2 0 105 115  00  00  00  00  303  155    0--.... 
 13O 0 0  86  00  00  00  00  00  195  113    0-..... 
 14C 1 0 112 151  00  00  00  00  339  113    0--.... 
 15C 1 0 141 162  00  00  00  00  375   99    0--.... 
 16C 1 0 152 171  00  00  00  00  411  113    0--.... 
 17C 1 0 161 182  00  00  00  00  411  141    0--.... 
 18C 1 0 111 172  00  00  00  00  375  155    0--.... 
 19CL0-1  00  00  00  00  00  00  257  216    0...... 
33      18  C14H24N2O2           1                    
  1N 0 0  21  61  75  00  00  00  272  192    0---... 
  2C 0 0  11  31  85 115  00  00  236  178    0----.. 
  3C 2 0  21  41  00  00  00  00  236  150    0--.... 
  4C 0 0  31  51 156  00  00  00  272  136    0---... 
  5C 1 0  41  62  00  00  00  00  308  150    0--.... 
  6C 0 0  11  52 145  00  00  00  308  178    0---... 
  7C 3 0  15  00  00  00  00  00  272  220    0-..... 
  8C 2 0  25  95  00  00  00  00  200  164    0--.... 
  9C 2 0  85 105  00  00  00  00  200  136    0--.... 
 10C 3 0  95  00  00  00  00  00  164  122    0-..... 
 11C 2 0  25 125  00  00  00  00  200  192    0--.... 
 12C 2 0 115 135  00  00  00  00  200  220    0--.... 
 13C 3 0 125  00  00  00  00  00  164  234    0-..... 
 14C 3 0  65  00  00  00  00  00  344  192    0-..... 
 15C 1 0  46 165  00  00  00  00  272  108    0--.... 
 16N 0 0 155 176 186  00  00  00  308   94    0---... 
 17O 0 0 166  00  00  00  00  00  311   66    0-..... 
 18O 0 0 166  00  00  00  00  00  342  108    0-..... 
34      31  C23H28O6S2           1                    
  1C 2 0  21  61  00  00  00  00  138  145    0--.... 
  2C 2 0  11  31  00  00  00  00  159  121    0--.... 
  3C 1 0  21  41  71  00  00  00  201  121    0-U-... 
  4C 2 0  31  51  00  00  00  00  222  145    0DU.... 
  5C 1 0  41  61  91  00  00  00  201  169    0D--... 
  6C 1 0  11  51 105  00  00  00  159  169    0--D... 
  7C 1 0  31  81 115  00  00  00  243  121    0--D... 
  8C 2 0  71  91  00  00  00  00  264  145    0--.... 
  9C 2 0  51  81  00  00  00  00  243  169    0--.... 
 10O 0 0  65 215  00  00  00  00  138  193    0U-.... 
 11O 0 0  75 125  00  00  00  00  264   97    0U-.... 
 12S 0 0 115 135 196 206  00  00  264   69    0----.. 
 13C 0 0 125 142 181  00  00  00  306   69    0---... 
 14C 1 0 132 151  00  00  00  00  327   45    0--.... 
 15C 1 0 141 162  00  00  00  00  369   45    0--.... 
 16C 0 0 152 171 315  00  00  00  390   69    0---... 
 17C 1 0 161 182  00  00  00  00  369   93    0--.... 
 18C 1 0 131 172  00  00  00  00  327   93    0--.... 
 19O 0 0 126  00  00  00  00  00  264   41    0-..... 
 20O 0 0 126  00  00  00  00  00  222   69    0-..... 
 21S 0 0 105 225 286 296  00  00  138  221    0----.. 
 22C 0 0 215 232 271  00  00  00  180  221    0---... 
 23C 1 0 222 241  00  00  00  00  201  197    0--.... 
 24C 1 0 231 252  00  00  00  00  243  197    0--.... 
 25C 0 0 242 261 305  00  00  00  264  221    0---... 
 26C 1 0 251 272  00  00  00  00  243  245    0--.... 
 27C 1 0 221 262  00  00  00  00  201  245    0--.... 
 28O 0 0 216  00  00  00  00  00  138  249    0-..... 
 29O 0 0 216  00  00  00  00  00   96  221    0-..... 
 30C 3 0 255  00  00  00  00  00  306  221    0-..... 
 31C 3 0 165  00  00  00  00  00  432   69    0-..... 
35      21  C17H26N2O2           1                    
  1C 1 0  21  62  00  00  00  00  179  144    0--.... 
  2C 2 0  11  31  00  00  00  00  200  120    0--.... 
  3C 1 0  21  41  71  00  00  00  242  120    0---... 
  4C 2 0  31  51  00  00  00  00  263  144    0--.... 
  5C 1 0  41  61  91  00  00  00  242  168    0---... 
  6C 0 0  12  51 105  00  00  00  200  168    0---... 
  7C 0 0  31  82 115  00  00  00  284  120    0---... 
  8C 1 0  72  91  00  00  00  00  305  144    0--.... 
  9C 2 0  51  81  00  00  00  00  284  168    0--.... 
 10N 0 0  65 121 131  00  00  00  179  192    0---... 
 11N 0 0  75 161 171  00  00  00  305   96    0---... 
 12C 2 0 101 151  00  00  00  00  137  192    0--.... 
 13C 2 0 101 141  00  00  00  00  200  216    0--.... 
 14C 2 0 131 201  00  00  00  00  179  240    0--.... 
 15C 2 0 121 201  00  00  00  00  116  216    0--.... 
 16C 2 0 111 191  00  00  00  00  284   72    0--.... 
 17C 2 0 111 181  00  00  00  00  347   96    0--.... 
 18C 2 0 171 211  00  00  00  00  368   72    0--.... 
 19C 2 0 161 211  00  00  00  00  305   48    0--.... 
 20O 0 0 141 151  00  00  00  00  137  240    0--.... 
 21O 0 0 181 191  00  00  00  00  347   48    0--.... 
36      13  C11H15NO             1                    
  1C 2 0  21  61  00  00  00  00  155  182    0--.... 
  2C 1 0  11  31  71  00  00  00  200  177    0---... 
  3C 1 0  21  41  51  00  00  00  250  185    0---... 
  4C 1 0  31  51 101  00  00  00  288  159    0---... 
  5C 1 0  41  61  31  00  00  00  244  171    0---... 
  6C 1 0  11  51  81  00  00  00  183  159    0---... 
  7C 2 0  21  91  00  00  00  00  194  132    0--.... 
  8C 2 0  61  91  00  00  00  00  180  114    0--.... 
  9C 0 0  71  81 101 115  00  00  235   98    0----.. 
 10C 2 0  41  91  00  00  00  00  288  118    0--.... 
 11C 0 0  95 126 135  00  00  00  235   70    0---... 
 12O 0 0 116  00  00  00  00  00  199   56    0-..... 
 13N 2 0 115  00  00  00  00  00  271   56    0-..... 
37      18  C15H18N2O            1                    
  1N 0 0  21  61 181  00  00  00  181  196    0---... 
  2C 2 0  11  31  00  00  00  00  231  204    0--.... 
  3C 0 0  21  41  91 115  00  00  269  178    0----.. 
  4C 2 0  31  51  00  00  00  00  225  190    0--.... 
  5N 0 0  41  71 171  00  00  00  164  178    0---... 
  6C 2 0  11  81  00  00  00  00  175  151    0--.... 
  7C 2 0  51  81  00  00  00  00  161  133    0--.... 
  8C 1 0  61  71  91  00  00  00  216  117    0---... 
  9C 0 0  31  81 106  00  00  00  269  137    0---... 
 10O 0 0  96  00  00  00  00  00  305  123    0-..... 
 11C 0 0  35 121 162  00  00  00  305  192    0---... 
 12C 1 0 111 132  00  00  00  00  341  178    0--.... 
 13C 1 0 122 141  00  00  00  00  377  192    0--.... 
 14C 1 0 131 152  00  00  00  00  377  220    0--.... 
 15C 1 0 142 161  00  00  00  00  341  234    0--.... 
 16C 1 0 112 151  00  00  00  00  305  220    0--.... 
 17C 2 0  51 181  00  00  00  00  128  192    0--.... 
 18C 2 0  11 171  00  00  00  00  149  216    0--.... 
38      17  C11FH8NO4            1                    
  1C 1 0  21  62  00  00  00  00  145  176    0--.... 
  2C 0 0  11  32 105  00  00  00  109  162    0---... 
  3C 1 0  22  41  00  00  00  00  109  134    0--.... 
  4C 1 0  31  52  00  00  00  00  145  120    0--.... 
  5C 0 0  42  61  71  00  00  00  181  134    0---... 
  6C 0 0  12  51  91  00  00  00  181  162    0---... 
  7C 0 0  51  86 111  00  00  00  217  120    0---... 
  8O 0 0  76  00  00  00  00  00  217   92    0-..... 
  9C 0 0  61 111 126  00  00  00  217  176    0---... 
 10F 0 0  25  00  00  00  00  00   73  176    0-..... 
 11N 0 0  71  91 135  00  00  00  254  148    0---... 
 12O 0 0  96  00  00  00  00  00  217  204    0-..... 
 13C 2 0 115 145  00  00  00  00  296  148    0--.... 
 14C 2 0 135 155  00  00  00  00  317  172    0--.... 
 15C 0 0 145 166 175  00  00  00  359  172    0---... 
 16O 0 0 156  00  00  00  00  00  380  148    0-..... 
 17O 1 0 155  00  00  00  00  00  380  196    0-..... 
39      20  C14FH14NO4           1                    
  1C 1 0  21  62  00  00  00  00  109  186    0--.... 
  2C 0 0  11  32 105  00  00  00   73  172    0---... 
  3C 1 0  22  41  00  00  00  00   73  144    0--.... 
  4C 1 0  31  52  00  00  00  00  109  130    0--.... 
  5C 0 0  42  61  71  00  00  00  145  144    0---... 
  6C 0 0  12  51  91  00  00  00  145  172    0---... 
  7C 0 0  51  86 111  00  00  00  181  130    0---... 
  8O 0 0  76  00  00  00  00  00  181  102    0-..... 
  9C 0 0  61 111 126  00  00  00  181  186    0---... 
 10F 0 0  25  00  00  00  00  00   37  186    0-..... 
 11N 0 0  71  91 135  00  00  00  218  158    0---... 
 12O 0 0  96  00  00  00  00  00  181  214    0-..... 
 13C 2 0 115 145  00  00  00  00  260  158    0--.... 
 14C 2 0 135 155  00  00  00  00  281  182    0--.... 
 15C 2 0 145 165  00  00  00  00  323  182    0--.... 
 16C 2 0 155 175  00  00  00  00  344  206    0--.... 
 17C 2 0 165 185  00  00  00  00  386  206    0--.... 
 18C 0 0 175 196 205  00  00  00  407  182    0---... 
 19O 0 0 186  00  00  00  00  00  390  156    0-..... 
 20O 1 0 185  00  00  00  00  00  446  182    0-..... 
40      23  C17FH12NO4           1                    
  1C 1 0  21  62  00  00  00  00  133  186    0--.... 
  2C 0 0  11  32 105  00  00  00   97  172    0---... 
  3C 1 0  22  41  00  00  00  00   97  144    0--.... 
  4C 1 0  31  52  00  00  00  00  133  130    0--.... 
  5C 0 0  42  61  71  00  00  00  169  144    0---... 
  6C 0 0  12  51  91  00  00  00  169  172    0---... 
  7C 0 0  51  86 111  00  00  00  205  130    0---... 
  8O 0 0  76  00  00  00  00  00  205  102    0-..... 
  9C 0 0  61 111 126  00  00  00  205  186    0---... 
 10F 0 0  25  00  00  00  00  00   61  186    0-..... 
 11N 0 0  71  91 135  00  00  00  242  158    0---... 
 12O 0 0  96  00  00  00  00  00  205  214    0-..... 
 13C 1 0 115 145 185  00  00  00  284  158    0---... 
 14C 2 0 135 155  00  00  00  00  305  182    0--.... 
 15C 0 0 145 162 171  00  00  00  347  182    0---... 
 16C 1 0 152 191  00  00  00  00  368  158    0--.... 
 17C 1 0 151 212  00  00  00  00  368  206    0--.... 
 18C 0 0 135 226 235  00  00  00  305  134    0---... 
 19C 1 0 161 202  00  00  00  00  410  158    0--.... 
 20C 1 0 192 211  00  00  00  00  431  182    0--.... 
 21C 1 0 172 201  00  00  00  00  410  206    0--.... 
 22O 0 0 186  00  00  00  00  00  288  108    0-..... 
 23O 1 0 185  00  00  00  00  00  344  134    0-..... 
41      27  C19H15N2O5P          1                    
  1C 1 0  21  62  00  00  00  00   48  105    0--.... 
  2C 1 0  11  32  00  00  00  00   48  133    0--.... 
  3C 1 0  22  41  00  00  00  00   84  147    0--.... 
  4C 0 0  31  52  91  00  00  00  120  133    0---... 
  5C 0 0  42  61  71  00  00  00  120  105    0---... 
  6C 1 0  12  51  00  00  00  00   84   91    0--.... 
  7C 0 0  51  86 111  00  00  00  156   91    0---... 
  8O 0 0  76  00  00  00  00  00  156   63    0-..... 
  9C 0 0  41 106 111  00  00  00  156  147    0---... 
 10O 0 0  96  00  00  00  00  00  156  175    0-..... 
 11N 0 0  71  91 125  00  00  00  183  116    0---... 
 12C 2 0 115 135  00  00  00  00  225  116    0--.... 
 13P 0 0 125 145 156 165  00  00  246  140    0----.. 
 14C 2 0 135 175  00  00  00  00  267  164    0--.... 
 15O 0 0 136  00  00  00  00  00  282  126    0-..... 
 16C 3 0 135  00  00  00  00  00  210  154    0-..... 
 17N 0 0 145 181 191  00  00  00  309  164    0---... 
 18C 0 0 171 216 221  00  00  00  330  140    0---... 
 19C 0 0 171 206 231  00  00  00  330  188    0---... 
 20O 0 0 196  00  00  00  00  00  330  216    0-..... 
 21O 0 0 186  00  00  00  00  00  330  112    0-..... 
 22C 0 0 181 232 271  00  00  00  373  147    0---... 
 23C 0 0 191 222 241  00  00  00  373  175    0---... 
 24C 1 0 231 252  00  00  00  00  409  189    0--.... 
 25C 1 0 242 261  00  00  00  00  445  175    0--.... 
 26C 1 0 251 272  00  00  00  00  445  147    0--.... 
 27C 1 0 221 262  00  00  00  00  409  133    0--.... 
42      18  C12H11NO5            1                    
  1C 1 0  21  62  00  00  00  00  109  186    0--.... 
  2C 1 0  11  32  00  00  00  00   73  172    0--.... 
  3C 1 0  22  41  00  00  00  00   73  144    0--.... 
  4C 1 0  31  52  00  00  00  00  109  130    0--.... 
  5C 0 0  42  61  71  00  00  00  145  144    0---... 
  6C 0 0  12  51  81  00  00  00  145  172    0---... 
  7C 0 0  51  91 116  00  00  00  181  130    0---... 
  8C 2 0  61  91  00  00  00  00  181  186    0--.... 
  9N 0 0  71  81 105  00  00  00  218  158    0---... 
 10C 1 0  95 125 135  00  00  00  260  158    0---... 
 11O 0 0  76  00  00  00  00  00  181  102    0-..... 
 12C 0 0 105 156 165  00  00  00  281  134    0---... 
 13C 2 0 105 145  00  00  00  00  281  182    0--.... 
 14C 0 0 135 176 185  00  00  00  323  182    0---... 
 15O 0 0 126  00  00  00  00  00  264  108    0-..... 
 16O 1 0 125  00  00  00  00  00  320  134    0-..... 
 17O 0 0 146  00  00  00  00  00  344  158    0-..... 
 18O 1 0 145  00  00  00  00  00  344  206    0-..... 
43      17  C12H12N2O3           1                    
  1O 0 0  21  61  00  00  00  00  143  188    0--.... 
  2C 2 0  11  31  00  00  00  00  107  174    0--.... 
  3C 2 0  21  41  00  00  00  00  107  146    0--.... 
  4O 0 0  31  51  00  00  00  00  143  132    0--.... 
  5C 0 0  41  61 102  00  00  00  179  146    0---... 
  6C 0 0  11  51  72  00  00  00  179  174    0---... 
  7C 1 0  62  81  00  00  00  00  215  188    0--.... 
  8C 0 0  71  92 131  00  00  00  251  174    0---... 
  9C 0 0  82 101 111  00  00  00  251  146    0---... 
 10C 1 0  52  91  00  00  00  00  215  132    0--.... 
 11C 0 0  91 125 162  00  00  00  287  132    0---... 
 12C 3 0 115  00  00  00  00  00  287  104    0-..... 
 13N 1 0  81 141  00  00  00  00  287  188    0--.... 
 14C 0 0 131 156 171  00  00  00  329  188    0---... 
 15O 0 0 146  00  00  00  00  00  350  212    0-..... 
 16N 0 0 112 171  00  00  00  00  329  132    0--.... 
 17C 2 0 141 161  00  00  00  00  350  156    0--.... 
44      18  C13H14N2O3           1                    
  1O 0 0  21  61  00  00  00  00  141  198    0--.... 
  2C 2 0  11  31  00  00  00  00  105  184    0--.... 
  3C 2 0  21  41  00  00  00  00  105  156    0--.... 
  4O 0 0  31  51  00  00  00  00  141  142    0--.... 
  5C 0 0  41  61  72  00  00  00  177  156    0---... 
  6C 0 0  11  51 122  00  00  00  177  184    0---... 
  7C 1 0  52  81  00  00  00  00  213  142    0--.... 
  8C 0 0  71  91 112  00  00  00  249  156    0---... 
  9C 0 0  81 105 152  00  00  00  285  142    0---... 
 10C 2 0  95 185  00  00  00  00  285  114    0--.... 
 11C 0 0  82 121 131  00  00  00  249  184    0---... 
 12C 1 0  62 111  00  00  00  00  213  198    0--.... 
 13N 1 0 111 141  00  00  00  00  285  198    0--.... 
 14C 0 0 131 161 176  00  00  00  327  198    0---... 
 15N 0 0  92 161  00  00  00  00  327  142    0--.... 
 16C 2 0 141 151  00  00  00  00  348  166    0--.... 
 17O 0 0 146  00  00  00  00  00  348  222    0-..... 
 18C 3 0 105  00  00  00  00  00  321  100    0-..... 
45      23  BrC17H13N2O3         1                    
  1O 0 0  21  61  00  00  00  00  136  207    0--.... 
  2C 2 0  11  31  00  00  00  00  100  193    0--.... 
  3C 2 0  21  41  00  00  00  00  100  165    0--.... 
  4O 0 0  31  51  00  00  00  00  136  151    0--.... 
  5C 0 0  41  61  72  00  00  00  172  165    0---... 
  6C 0 0  11  51 122  00  00  00  172  193    0---... 
  7C 1 0  52  81  00  00  00  00  208  151    0--.... 
  8C 0 0  71  91 112  00  00  00  244  165    0---... 
  9C 0 0  81 105 152  00  00  00  280  151    0---... 
 10C 0 0  95 181 192  00  00  00  280  123    0---... 
 11C 0 0  82 121 131  00  00  00  244  193    0---... 
 12C 1 0  62 111  00  00  00  00  208  207    0--.... 
 13N 1 0 111 141  00  00  00  00  280  207    0--.... 
 14C 0 0 131 161 176  00  00  00  322  207    0---... 
 15N 0 0  92 161  00  00  00  00  322  151    0--.... 
 16C 2 0 141 151  00  00  00  00  343  175    0--.... 
 17O 0 0 146  00  00  00  00  00  343  231    0-..... 
 18C 0 0 101 222 235  00  00  00  316  109    0---... 
 19C 1 0 102 201  00  00  00  00  244  109    0--.... 
 20C 1 0 191 212  00  00  00  00  244   81    0--.... 
 21C 1 0 202 221  00  00  00  00  280   67    0--.... 
 22C 1 0 182 211  00  00  00  00  316   81    0--.... 
 23BR0 0 185  00  00  00  00  00  352  123    0-..... 
46      28  C25H29NO             1                    
  1C 1 0  22  61  00  00  00  00  125  105    0--.... 
  2C 1 0  12  31  00  00  00  00  125  133    0--.... 
  3C 1 0  21  42  00  00  00  00  161  147    0--.... 
  4C 0 0  32  51 135  00  00  00  197  133    0---... 
  5C 0 0  41  62  75  00  00  00  197  105    0---... 
  6C 1 0  11  52  00  00  00  00  161   91    0--.... 
  7C 0 0  55  85  95 105  00  00  233   91    0-DU-.. 
  8C 3 0  75  00  00  00  00  00  197   77    0U..... 
  9H 0 0  75  00  00  00  00  00  269   77    0D..... 
 10N 0 0  75 115 125  00  00  00  269  105    0---... 
 11C 3 0 105  00  00  00  00  00  305   91    0-..... 
 12C 3 0 105  00  00  00  00  00  305  119    0-..... 
 13C 0 0  45 145 155 165  00  00  233  147    0----.. 
 14O 1 0 135  00  00  00  00  00  269  133    0-..... 
 15C 0 0 135 172 211  00  00  00  197  161    0---... 
 16C 0 0 135 221 232  00  00  00  269  161    0---... 
 17C 1 0 152 181  00  00  00  00  197  189    0--.... 
 18C 1 0 171 192  00  00  00  00  161  203    0--.... 
 19C 1 0 182 201  00  00  00  00  125  189    0--.... 
 20C 1 0 191 212  00  00  00  00  125  161    0--.... 
 21C 1 0 151 202  00  00  00  00  159  155    0--.... 
 22C 1 0 161 242  00  00  00  00  305  147    0--.... 
 23C 0 0 162 261 275  00  00  00  269  189    0---... 
 24C 0 0 222 251 285  00  00  00  341  161    0---... 
 25C 1 0 241 262  00  00  00  00  341  189    0--.... 
 26C 1 0 231 252  00  00  00  00  305  203    0--.... 
 27C 3 0 235  00  00  00  00  00  233  203    0-..... 
 28C 3 0 245  00  00  00  00  00  377  147    0-..... 
47      12  C10H15NO             1                    
  1C 1 0  21  62  00  00  00  00  214  193    0--.... 
  2C 1 0  11  32  00  00  00  00  178  179    0--.... 
  3C 1 0  22  41  00  00  00  00  178  151    0--.... 
  4C 1 0  31  52  00  00  00  00  214  137    0--.... 
  5C 0 0  42  61  85  00  00  00  250  151    0---... 
  6C 0 0  12  51  75  00  00  00  250  179    0---... 
  7O 1 0  65  00  00  00  00  00  286  193    0-..... 
  8C 1 0  55  95 125  00  00  00  286  137    0---... 
  9N 0 0  85 105 115  00  00  00  322  151    0---... 
 10C 3 0  95  00  00  00  00  00  322  179    0-..... 
 11C 3 0  95  00  00  00  00  00  358  137    0-..... 
 12C 3 0  85  00  00  00  00  00  286  109    0-..... 
48      13  C10H15NO             1                    
  1C 1 0  21  62  00  00  00  00  214  193    0--.... 
  2C 1 0  11  32  00  00  00  00  178  179    0--.... 
  3C 1 0  22  41  00  00  00  00  178  151    0--.... 
  4C 1 0  31  52  00  00  00  00  214  137    0--.... 
  5C 0 0  42  61  85  00  00  00  250  151    0---... 
  6C 0 0  12  51  75  00  00  00  250  179    0---... 
  7O 1 0  65  00  00  00  00  00  286  193    0-..... 
  8C 0 0  55  95 125 135  00  00  286  137    0--DU.. 
  9N 0 0  85 105 115  00  00  00  322  151    0---... 
 10C 3 0  95  00  00  00  00  00  322  179    0-..... 
 11C 3 0  95  00  00  00  00  00  358  137    0-..... 
 12C 3 0  85  00  00  00  00  00  250  123    0U..... 
 13H 0 0  85  00  00  00  00  00  322  123    0D..... 
49      28  C25H29NO             1                    
  1C 1 0  22  61  00  00  00  00  114  108    0--.... 
  2C 1 0  12  31  00  00  00  00  114  136    0--.... 
  3C 1 0  21  42  00  00  00  00  150  150    0--.... 
  4C 0 0  32  51 135  00  00  00  186  136    0---... 
  5C 0 0  41  62  75  00  00  00  186  108    0---... 
  6C 1 0  11  52  00  00  00  00  150   94    0--.... 
  7C 0 0  55  85  95 105  00  00  222   94    0-DU-.. 
  8C 3 0  75  00  00  00  00  00  186   80    0U..... 
  9H 0 0  75  00  00  00  00  00  258   80    0D..... 
 10N 0 0  75 115 125  00  00  00  258  108    0---... 
 11C 3 0 105  00  00  00  00  00  294   94    0-..... 
 12C 3 0 105  00  00  00  00  00  294  122    0-..... 
 13C 0 0  45 145 155 165  00  00  222  150    0--D-.. 
 14O 1 0 135  00  00  00  00  00  258  136    0-..... 
 15C 0 0 135 172 211  00  00  00  186  164    0U--... 
 16C 0 0 135 221 232  00  00  00  258  164    0---... 
 17C 1 0 152 181  00  00  00  00  186  192    0--.... 
 18C 1 0 171 192  00  00  00  00  150  206    0--.... 
 19C 1 0 182 201  00  00  00  00  114  192    0--.... 
 20C 1 0 191 212  00  00  00  00  114  164    0--.... 
 21C 1 0 151 202  00  00  00  00  148  158    0--.... 
 22C 1 0 161 242  00  00  00  00  294  150    0--.... 
 23C 0 0 162 261 275  00  00  00  258  192    0---... 
 24C 1 0 222 251  00  00  00  00  330  164    0--.... 
 25C 0 0 241 262 285  00  00  00  330  192    0---... 
 26C 1 0 231 252  00  00  00  00  294  206    0--.... 
 27C 3 0 235  00  00  00  00  00  222  206    0-..... 
 28C 3 0 255  00  00  00  00  00  366  206    0-..... 
50      25  C23H25NO             1                    
  1C 1 0  21  62  00  00  00  00  171  147    0--.... 
  2C 1 0  11  32  00  00  00  00  135  133    0--.... 
  3C 1 0  22  41  00  00  00  00  135  105    0--.... 
  4C 1 0  31  52  00  00  00  00  171   91    0--.... 
  5C 0 0  42  61  85  00  00  00  207  105    0---... 
  6C 0 0  12  51  75  00  00  00  207  133    0---... 
  7C 0 0  65 135 195 255  00  00  243  147    0----.. 
  8C 1 0  55  95 115  00  00  00  243   91    0---... 
  9N 0 0  85 105 125  00  00  00  279  105    0---... 
 10C 3 0  95  00  00  00  00  00  315   91    0-..... 
 11C 3 0  85  00  00  00  00  00  243   63    0-..... 
 12C 3 0  95  00  00  00  00  00  315  119    0-..... 
 13C 0 0  75 141 182  00  00  00  207  161    0---... 
 14C 1 0 131 152  00  00  00  00  171  175    0--.... 
 15C 1 0 142 161  00  00  00  00  171  203    0--.... 
 16C 1 0 151 172  00  00  00  00  207  217    0--.... 
 17C 1 0 162 181  00  00  00  00  243  203    0--.... 
 18C 1 0 132 171  00  00  00  00  243  175    0--.... 
 19C 0 0  75 201 242  00  00  00  310  166    0---... 
 20C 1 0 191 212  00  00  00  00  274  180    0--.... 
 21C 1 0 202 221  00  00  00  00  274  208    0--.... 
 22C 1 0 211 232  00  00  00  00  310  222    0--.... 
 23C 1 0 222 241  00  00  00  00  346  208    0--.... 
 24C 1 0 192 231  00  00  00  00  346  180    0--.... 
 25O 1 0  75  00  00  00  00  00  279  133    0-..... 
51      26  C23H25NO             1                    
  1C 1 0  22  61  00  00  00  00  141   98    0--.... 
  2C 1 0  12  31  00  00  00  00  141  126    0--.... 
  3C 1 0  21  42  00  00  00  00  177  140    0--.... 
  4C 0 0  32  51 135  00  00  00  213  126    0---... 
  5C 0 0  41  62  75  00  00  00  213   98    0---... 
  6C 1 0  11  52  00  00  00  00  177   84    0--.... 
  7C 0 0  55  85  95 105  00  00  249   84    0-DU-.. 
  8C 3 0  75  00  00  00  00  00  213   70    0U..... 
  9H 0 0  75  00  00  00  00  00  285   70    0D..... 
 10N 0 0  75 115 125  00  00  00  285   98    0---... 
 11C 3 0 105  00  00  00  00  00  321   84    0-..... 
 12C 3 0 105  00  00  00  00  00  321  112    0-..... 
 13C 0 0  45 145 155 165  00  00  249  140    0----.. 
 14O 1 0 135  00  00  00  00  00  285  126    0-..... 
 15C 0 0 135 172 211  00  00  00  213  154    0---... 
 16C 0 0 135 221 262  00  00  00  285  154    0---... 
 17C 1 0 152 181  00  00  00  00  213  182    0--.... 
 18C 1 0 171 192  00  00  00  00  177  196    0--.... 
 19C 1 0 182 201  00  00  00  00  141  182    0--.... 
 20C 1 0 191 212  00  00  00  00  141  154    0--.... 
 21C 1 0 151 202  00  00  00  00  175  148    0--.... 
 22C 1 0 161 232  00  00  00  00  249  168    0--.... 
 23C 1 0 222 241  00  00  00  00  249  196    0--.... 
 24C 1 0 231 252  00  00  00  00  285  210    0--.... 
 25C 1 0 242 261  00  00  00  00  321  196    0--.... 
 26C 1 0 162 251  00  00  00  00  321  168    0--.... 
52      24  C21H29NO             1                    
  1C 1 0  22  61  00  00  00  00  143  111    0--.... 
  2C 1 0  12  31  00  00  00  00  143  139    0--.... 
  3C 1 0  21  42  00  00  00  00  179  153    0--.... 
  4C 0 0  32  51 135  00  00  00  215  139    0---... 
  5C 0 0  41  62  75  00  00  00  215  111    0---... 
  6C 1 0  11  52  00  00  00  00  179   97    0--.... 
  7C 0 0  55  85  95 105  00  00  251   97    0-DU-.. 
  8C 3 0  75  00  00  00  00  00  215   83    0U..... 
  9H 0 0  75  00  00  00  00  00  287   83    0D..... 
 10N 0 0  75 115 125  00  00  00  287  111    0---... 
 11C 3 0 105  00  00  00  00  00  323   97    0-..... 
 12C 3 0 105  00  00  00  00  00  323  125    0-..... 
 13C 0 0  45 145 155 165  00  00  251  153    0----.. 
 14O 1 0 135  00  00  00  00  00  287  139    0-..... 
 15C 0 0 135 172 211  00  00  00  215  167    0---... 
 16C 0 0 135 225 235 245  00  00  287  167    0----.. 
 17C 1 0 152 181  00  00  00  00  215  195    0--.... 
 18C 1 0 171 192  00  00  00  00  179  209    0--.... 
 19C 1 0 182 201  00  00  00  00  143  195    0--.... 
 20C 1 0 191 212  00  00  00  00  143  167    0--.... 
 21C 1 0 151 202  00  00  00  00  177  161    0--.... 
 22C 3 0 165  00  00  00  00  00  323  153    0-..... 
 23C 3 0 165  00  00  00  00  00  323  181    0-..... 
 24C 3 0 165  00  00  00  00  00  287  195    0-..... 
53      17  C15H18N2             1                    
  1C 1 0  22  61  00  00  00  00  181  138    0--.... 
  2C 1 0  12  31  00  00  00  00  145  124    0--.... 
  3N 0 0  21  42  00  00  00  00  145   96    0--.... 
  4C 1 0  32  51  00  00  00  00  181   82    0--.... 
  5C 1 0  41  62  00  00  00  00  217   96    0--.... 
  6C 0 0  11  52  75  00  00  00  217  124    0---... 
  7C 1 0  65  85 145  00  00  00  253  138    0---... 
  8C 0 0  75  92 131  00  00  00  289  124    0---... 
  9C 1 0  82 101  00  00  00  00  289   96    0--.... 
 10C 1 0  91 112  00  00  00  00  325   82    0--.... 
 11C 1 0 102 121  00  00  00  00  361   96    0--.... 
 12C 1 0 111 132  00  00  00  00  361  124    0--.... 
 13C 1 0  81 122  00  00  00  00  325  138    0--.... 
 14N 1 0  75 155  00  00  00  00  253  166    0--.... 
 15C 2 0 145 165  00  00  00  00  289  180    0--.... 
 16C 2 0 155 175  00  00  00  00  325  166    0--.... 
 17C 3 0 165  00  00  00  00  00  361  180    0-..... 
54      18  C16H14N2             1                    
  1C 1 0  21 102  00  00  00  00  148   99    0--.... 
  2C 1 0  11  32  00  00  00  00  148   71    0--.... 
  3C 1 0  22  41  00  00  00  00  184   57    0--.... 
  4C 0 0  31  51  92  00  00  00  220   71    0---... 
  5C 1 0  41  62  00  00  00  00  256   57    0--.... 
  6C 1 0  52  71  00  00  00  00  292   71    0--.... 
  7C 1 0  61  82  00  00  00  00  292   99    0--.... 
  8C 0 0  72  91 115  00  00  00  256  113    0---... 
  9C 0 0  42  81 101  00  00  00  220   99    0---... 
 10C 1 0  12  91  00  00  00  00  184  113    0--.... 
 11N 1 0  85 125  00  00  00  00  256  141    0--.... 
 12C 2 0 115 135  00  00  00  00  292  155    0--.... 
 13C 0 0 125 142 181  00  00  00  292  183    0---... 
 14C 1 0 132 151  00  00  00  00  256  197    0--.... 
 15C 1 0 141 162  00  00  00  00  256  225    0--.... 
 16N 0 0 152 171  00  00  00  00  292  239    0--.... 
 17C 1 0 161 182  00  00  00  00  328  225    0--.... 
 18C 1 0 131 172  00  00  00  00  328  197    0--.... 
55      17  C14H14N2O            1                    
  1C 1 0  22  61  00  00  00  00   96  168    0--.... 
  2C 1 0  12  31  00  00  00  00   96  140    0--.... 
  3C 1 0  21  42  00  00  00  00  132  126    0--.... 
  4C 0 0  32  51  75  00  00  00  168  140    0---... 
  5C 1 0  41  62  00  00  00  00  168  168    0--.... 
  6N 0 0  11  52  00  00  00  00  132  182    0--.... 
  7C 0 0  45  85 176  00  00  00  204  126    0---... 
  8N 1 0  75  95  00  00  00  00  240  140    0--.... 
  9C 1 0  85 105 115  00  00  00  276  126    0---... 
 10C 3 0  95  00  00  00  00  00  276   98    0-..... 
 11C 0 0  95 122 161  00  00  00  312  140    0---... 
 12C 1 0 112 131  00  00  00  00  348  126    0--.... 
 13C 1 0 121 142  00  00  00  00  384  140    0--.... 
 14C 1 0 132 151  00  00  00  00  384  168    0--.... 
 15C 1 0 141 162  00  00  00  00  348  182    0--.... 
 16C 1 0 111 152  00  00  00  00  312  168    0--.... 
 17O 0 0  76  00  00  00  00  00  204   98    0-..... 
56      17  C14H14N2S            1                    
  1N 0 0  22  61  00  00  00  00   96  168    0--.... 
  2C 1 0  12  31  00  00  00  00   96  140    0--.... 
  3C 1 0  21  42  00  00  00  00  132  126    0--.... 
  4C 0 0  32  51  75  00  00  00  168  140    0---... 
  5C 1 0  41  62  00  00  00  00  168  168    0--.... 
  6C 1 0  11  52  00  00  00  00  132  182    0--.... 
  7C 0 0  45  85 176  00  00  00  204  126    0---... 
  8N 1 0  75  95  00  00  00  00  240  140    0--.... 
  9C 1 0  85 105 115  00  00  00  276  126    0---... 
 10C 3 0  95  00  00  00  00  00  276   98    0-..... 
 11C 0 0  95 122 161  00  00  00  312  140    0---... 
 12C 1 0 112 131  00  00  00  00  348  126    0--.... 
 13C 1 0 121 142  00  00  00  00  384  140    0--.... 
 14C 1 0 132 151  00  00  00  00  384  168    0--.... 
 15C 1 0 141 162  00  00  00  00  348  182    0--.... 
 16C 1 0 111 152  00  00  00  00  312  168    0--.... 
 17S 0 0  76  00  00  00  00  00  204   98    0-..... 
57      17  C14H14N2O            1                    
  1C 1 0  22  61  00  00  00  00   96  168    0--.... 
  2C 1 0  12  31  00  00  00  00   96  140    0--.... 
  3C 1 0  21  42  00  00  00  00  132  126    0--.... 
  4C 0 0  32  51  75  00  00  00  168  140    0---... 
  5N 0 0  41  62  00  00  00  00  168  168    0--.... 
  6C 1 0  11  52  00  00  00  00  132  182    0--.... 
  7N 1 0  45  85  00  00  00  00  204  126    0--.... 
  8C 0 0  75  95 136  00  00  00  240  140    0---... 
  9C 1 0  85 105 115  00  00  00  276  126    0---... 
 10C 3 0  95  00  00  00  00  00  276   98    0-..... 
 11C 0 0  95 122 141  00  00  00  312  140    0---... 
 12C 1 0 112 171  00  00  00  00  348  126    0--.... 
 13O 0 0  86  00  00  00  00  00  240  168    0-..... 
 14C 1 0 111 152  00  00  00  00  312  168    0--.... 
 15C 1 0 142 161  00  00  00  00  348  182    0--.... 
 16C 1 0 151 172  00  00  00  00  384  168    0--.... 
 17C 1 0 121 162  00  00  00  00  384  140    0--.... 
58      15  C13H16N2             1                    
  1C 1 0  22  61  00  00  00  00  163  199    0--.... 
  2C 1 0  12  31  00  00  00  00  127  185    0--.... 
  3C 1 0  21  42  00  00  00  00  127  157    0--.... 
  4C 1 0  32  51  00  00  00  00  163  143    0--.... 
  5C 0 0  41  62  91  00  00  00  199  157    0---... 
  6C 0 0  52  11  71  00  00  00  199  185    0---... 
  7N 1 0  61  81  00  00  00  00  235  199    0--.... 
  8C 0 0  71  92 131  00  00  00  271  185    0---... 
  9C 0 0  82 101  51  00  00  00  271  157    0---... 
 10C 2 0  91 111  00  00  00  00  307  143    0--.... 
 11N 0 0 101 121 145  00  00  00  343  157    0---... 
 12C 2 0 111 131  00  00  00  00  343  185    0--.... 
 13C 2 0 121  81  00  00  00  00  307  199    0--.... 
 14C 2 0 115 155  00  00  00  00  379  143    0--.... 
 15C 3 0 145  00  00  00  00  00  415  157    0-..... 
59      20  C18H18N2             1                    
  1C 1 0  22  61  00  00  00  00   91  185    0--.... 
  2C 1 0  12  31  00  00  00  00   55  171    0--.... 
  3C 1 0  21  42  00  00  00  00   55  143    0--.... 
  4C 1 0  32  51  00  00  00  00   91  129    0--.... 
  5C 0 0  41  62  91  00  00  00  127  143    0---... 
  6C 0 0  11  52  71  00  00  00  127  171    0---... 
  7N 1 0  61  81  00  00  00  00  163  185    0--.... 
  8C 0 0  71  92 201  00  00  00  199  171    0---... 
  9C 0 0  51  82 101  00  00  00  199  143    0---... 
 10C 2 0  91 111  00  00  00  00  235  129    0--.... 
 11N 0 0 101 125 191  00  00  00  271  143    0---... 
 12C 2 0 115 135  00  00  00  00  307  129    0--.... 
 13C 0 0 125 141 182  00  00  00  343  143    0---... 
 14C 1 0 131 152  00  00  00  00  379  129    0--.... 
 15C 1 0 142 161  00  00  00  00  415  143    0--.... 
 16C 1 0 151 172  00  00  00  00  415  171    0--.... 
 17C 1 0 162 181  00  00  00  00  379  185    0--.... 
 18C 1 0 132 171  00  00  00  00  343  171    0--.... 
 19C 2 0 111 201  00  00  00  00  271  171    0--.... 
 20C 2 0  81 191  00  00  00  00  235  185    0--.... 
60      25  C21ClH22N3           1                    
  1C 0 0  22  61 245  00  00  00   96  168    0---... 
  2C 1 0  12  31  00  00  00  00   96  140    0--.... 
  3C 1 0  21  42  00  00  00  00  132  126    0--.... 
  4C 0 0  32  51  75  00  00  00  168  140    0---... 
  5C 1 0  41  62  00  00  00  00  168  168    0--.... 
  6N 1 1  11  52  00  00  00  00  132  182    0--.... 
  7C 2 0  45  85  00  00  00  00  204  126    0--.... 
  8C 2 0  75  95  00  00  00  00  240  140    0--.... 
  9N 0 0  85 101 111  00  00  00  276  126    0---... 
 10C 0 0  91 132 141  00  00  00  276   98    0---... 
 11C 0 0  91 122 211  00  00  00  312  140    0---... 
 12C 0 0 112 131 181  00  00  00  348  126    0---... 
 13C 0 0 102 121 171  00  00  00  312   84    0---... 
 14C 1 0 101 152  00  00  00  00  240   84    0--.... 
 15C 1 0 142 161  00  00  00  00  240   56    0--.... 
 16C 1 0 151 172  00  00  00  00  276   42    0--.... 
 17C 1 0 131 162  00  00  00  00  312   56    0--.... 
 18C 1 0 121 192  00  00  00  00  384  140    0--.... 
 19C 0 0 182 201 225  00  00  00  384  168    0---... 
 20C 0 0 191 212 235  00  00  00  348  182    0---... 
 21N 0 0 111 202  00  00  00  00  312  168    0--.... 
 22C 3 0 195  00  00  00  00  00  420  182    0-..... 
 23C 3 0 205  00  00  00  00  00  348  210    0-..... 
 24C 3 0  15  00  00  00  00  00   60  182    0-..... 
 25CL0-1  00  00  00  00  00  00  218  229    0...... 
61      20  C18H20N2             1                    
  1C 0 0  22  61 195  00  00  00  167  195    0---... 
  2C 1 0  12  31  00  00  00  00  167  167    0--.... 
  3C 1 0  21  42  00  00  00  00  203  153    0--.... 
  4C 0 0  32  51  75  00  00  00  239  167    0---... 
  5C 1 0  41  62  00  00  00  00  239  195    0--.... 
  6N 0 0  11  52  00  00  00  00  203  209    0--.... 
  7C 2 0  45  85  00  00  00  00  275  153    0--.... 
  8C 2 0  75  95  00  00  00  00  311  167    0--.... 
  9N 0 0  85 101 111  00  00  00  347  153    0---... 
 10C 0 0  91 132 141  00  00  00  347  125    0---... 
 11C 0 0  91 122 205  00  00  00  383  167    0---... 
 12C 0 0 112 131 185  00  00  00  419  153    0---... 
 13C 0 0 102 121 171  00  00  00  383  111    0---... 
 14C 1 0 101 152  00  00  00  00  311  111    0--.... 
 15C 1 0 142 161  00  00  00  00  311   83    0--.... 
 16C 1 0 151 172  00  00  00  00  347   69    0--.... 
 17C 1 0 131 162  00  00  00  00  383   83    0--.... 
 18C 3 0 125  00  00  00  00  00  455  167    0-..... 
 19C 3 0  15  00  00  00  00  00  131  209    0-..... 
 20C 3 0 115  00  00  00  00  00  383  195    0-..... 
62      15  C12H10N2O            1                    
  1N 0 0  22  61  00  00  00  00   96  168    0--.... 
  2C 1 0  12  31  00  00  00  00   96  140    0--.... 
  3C 1 0  21  42  00  00  00  00  132  126    0--.... 
  4C 0 0  32  51  75  00  00  00  168  140    0---... 
  5C 1 0  41  62  00  00  00  00  168  168    0--.... 
  6C 1 0  11  52  00  00  00  00  132  182    0--.... 
  7C 0 0  45  85 136  00  00  00  204  126    0---... 
  8N 1 0  75  95  00  00  00  00  240  140    0--.... 
  9C 0 0  85 102 111  00  00  00  276  126    0---... 
 10C 1 0  92 141  00  00  00  00  276   98    0--.... 
 11C 1 0  91 122  00  00  00  00  312  140    0--.... 
 12C 1 0 112 151  00  00  00  00  348  126    0--.... 
 13O 0 0  76  00  00  00  00  00  204   98    0-..... 
 14C 1 0 101 152  00  00  00  00  312   84    0--.... 
 15C 1 0 121 142  00  00  00  00  348   98    0--.... 
63      16  BrC12H9N2O           1                    
  1N 0 0  22  61  00  00  00  00   96  168    0--.... 
  2C 1 0  12  31  00  00  00  00   96  140    0--.... 
  3C 1 0  21  42  00  00  00  00  132  126    0--.... 
  4C 0 0  32  51  75  00  00  00  168  140    0---... 
  5C 1 0  41  62  00  00  00  00  168  168    0--.... 
  6C 1 0  11  52  00  00  00  00  132  182    0--.... 
  7C 0 0  45  85 136  00  00  00  204  126    0---... 
  8N 1 0  75  95  00  00  00  00  240  140    0--.... 
  9C 0 0  85 102 111  00  00  00  276  126    0---... 
 10C 1 0  92 141  00  00  00  00  276   98    0--.... 
 11C 1 0  91 122  00  00  00  00  312  140    0--.... 
 12C 1 0 112 151  00  00  00  00  348  126    0--.... 
 13O 0 0  76  00  00  00  00  00  204   98    0-..... 
 14C 1 0 101 152  00  00  00  00  312   84    0--.... 
 15C 0 0 121 142 165  00  00  00  348   98    0---... 
 16BR0 0 155  00  00  00  00  00  384   84    0-..... 
64      16  C13H12N2O            1                    
  1N 0 0  22  61  00  00  00  00  130  195    0--.... 
  2C 1 0  12  31  00  00  00  00  130  167    0--.... 
  3C 1 0  21  42  00  00  00  00  166  153    0--.... 
  4C 0 0  32  51  75  00  00  00  202  167    0---... 
  5C 1 0  41  62  00  00  00  00  202  195    0--.... 
  6C 1 0  11  52  00  00  00  00  166  209    0--.... 
  7C 0 0  45  85 126  00  00  00  238  153    0---... 
  8N 1 0  75  95  00  00  00  00  274  167    0--.... 
  9C 0 0  85 112 141  00  00  00  310  153    0---... 
 10C 1 0 111 132  00  00  00  00  382  153    0--.... 
 11C 0 0  92 101 165  00  00  00  346  167    0---... 
 12O 0 0  76  00  00  00  00  00  238  125    0-..... 
 13C 1 0 102 151  00  00  00  00  382  125    0--.... 
 14C 1 0  91 152  00  00  00  00  310  125    0--.... 
 15C 1 0 131 142  00  00  00  00  346  111    0--.... 
 16C 3 0 115  00  00  00  00  00  346  195    0-..... 
65      21  C17H14INO2           1                    
  1C 1 0  21  62  00  00  00  00  154  206    0--.... 
  2N 0 1  11  32  75  00  00  00  118  192    0---... 
  3C 1 0  22  41  00  00  00  00  118  164    0--.... 
  4C 1 0  31  52  00  00  00  00  154  150    0--.... 
  5C 0 0  42  61  85  00  00  00  190  164    0---... 
  6C 1 0  12  51  00  00  00  00  190  192    0--.... 
  7C 3 0  25  00  00  00  00  00   82  206    0-..... 
  8C 0 0  55  96 105  00  00  00  226  150    0---... 
  9O 0 0  86  00  00  00  00  00  226  122    0-..... 
 10O 0 0  85 115  00  00  00  00  262  164    0--.... 
 11C 0 0 105 122 171  00  00  00  298  150    0---... 
 12C 1 0 112 131  00  00  00  00  298  122    0--.... 
 13C 1 0 121 142  00  00  00  00  334  108    0--.... 
 14C 0 0 132 151 161  00  00  00  370  122    0---... 
 15C 1 0 141 192  00  00  00  00  406  108    0--.... 
 16C 0 0 141 172 211  00  00  00  370  150    0---... 
 17C 1 0 111 162  00  00  00  00  334  164    0--.... 
 18I 0-1  00  00  00  00  00  00  113  118    0...... 
 19C 1 0 152 201  00  00  00  00  442  122    0--.... 
 20C 1 0 191 212  00  00  00  00  442  150    0--.... 
 21C 1 0 161 202  00  00  00  00  406  164    0--.... 
66      19  C15H17IN2O           1                    
  1C 1 0  21  62  00  00  00  00  149  208    0--.... 
  2N 0 1  11  32  75  00  00  00  113  194    0---... 
  3C 1 0  22  41  00  00  00  00  113  166    0--.... 
  4C 1 0  31  52  00  00  00  00  149  152    0--.... 
  5C 0 0  42  61  85  00  00  00  185  166    0---... 
  6C 1 0  12  51  00  00  00  00  185  194    0--.... 
  7C 3 0  25  00  00  00  00  00   77  208    0-..... 
  8C 0 0  55  96 105  00  00  00  221  152    0---... 
  9O 0 0  86  00  00  00  00  00  221  124    0-..... 
 10N 1 0  85 115  00  00  00  00  257  166    0--.... 
 11C 2 0 105 155  00  00  00  00  293  152    0--.... 
 12C 1 0 131 142  00  00  00  00  365  124    0--.... 
 13C 1 0 121 172  00  00  00  00  401  110    0--.... 
 14C 0 0 122 155 191  00  00  00  365  152    0---... 
 15C 2 0 115 145  00  00  00  00  329  166    0--.... 
 16I 0-1  00  00  00  00  00  00  108  120    0...... 
 17C 1 0 132 181  00  00  00  00  437  124    0--.... 
 18C 1 0 171 192  00  00  00  00  437  152    0--.... 
 19C 1 0 141 182  00  00  00  00  401  166    0--.... 
67      19  C15H17IN2O           1                    
  1C 1 0  21  62  00  00  00  00  168  212    0--.... 
  2N 0 1  11  32  75  00  00  00  132  198    0---... 
  3C 1 0  22  41  00  00  00  00  132  170    0--.... 
  4C 1 0  31  52  00  00  00  00  168  156    0--.... 
  5C 0 0  42  61  85  00  00  00  204  170    0---... 
  6C 1 0  12  51  00  00  00  00  204  198    0--.... 
  7C 3 0  25  00  00  00  00  00   96  212    0-..... 
  8C 0 0  55  96 105  00  00  00  240  156    0---... 
  9O 0 0  86  00  00  00  00  00  240  128    0-..... 
 10N 1 0  85 115  00  00  00  00  276  170    0--.... 
 11C 1 0 105 135 195  00  00  00  312  156    0---... 
 12C 1 0 131 152  00  00  00  00  384  156    0--.... 
 13C 0 0 115 121 162  00  00  00  348  170    0---... 
 14I 0-1  00  00  00  00  00  00  127  124    0...... 
 15C 1 0 122 181  00  00  00  00  420  170    0--.... 
 16C 1 0 132 171  00  00  00  00  348  198    0--.... 
 17C 1 0 161 182  00  00  00  00  384  212    0--.... 
 18C 1 0 151 172  00  00  00  00  420  198    0--.... 
 19C 3 0 115  00  00  00  00  00  312  128    0-..... 
68      18  C14H15IN2O           1                    
  1C 1 0  21  62  00  00  00  00  147  204    0--.... 
  2N 0 1  11  32  75  00  00  00  111  190    0---... 
  3C 1 0  22  41  00  00  00  00  111  162    0--.... 
  4C 1 0  31  52  00  00  00  00  147  148    0--.... 
  5C 0 0  42  61  85  00  00  00  183  162    0---... 
  6C 1 0  12  51  00  00  00  00  183  190    0--.... 
  7C 3 0  25  00  00  00  00  00   75  204    0-..... 
  8C 0 0  55  96 105  00  00  00  219  148    0---... 
  9O 0 0  86  00  00  00  00  00  219  120    0-..... 
 10N 1 0  85 115  00  00  00  00  255  162    0--.... 
 11C 2 0 105 135  00  00  00  00  291  148    0--.... 
 12C 1 0 131 152  00  00  00  00  363  148    0--.... 
 13C 0 0 115 121 162  00  00  00  327  162    0---... 
 14I 0-1  00  00  00  00  00  00  106  116    0...... 
 15C 1 0 122 181  00  00  00  00  399  162    0--.... 
 16C 1 0 132 171  00  00  00  00  327  190    0--.... 
 17C 1 0 161 182  00  00  00  00  363  204    0--.... 
 18C 1 0 151 172  00  00  00  00  399  190    0--.... 
69      18  BrC13ClH16N2O        1                    
  1C 2 0  21  61  00  00  00  00  153  213    0--.... 
  2N 1 1  11  31  75  00  00  00  117  199    0---... 
  3C 2 0  21  41  00  00  00  00  117  171    0--.... 
  4C 1 0  31  52  00  00  00  00  153  157    0--.... 
  5C 0 0  42  61  85  00  00  00  189  171    0---... 
  6C 2 0  11  51  00  00  00  00  189  199    0--.... 
  7C 3 0  25  00  00  00  00  00   81  213    0-..... 
  8C 0 0  55  96 105  00  00  00  225  157    0---... 
  9O 0 0  86  00  00  00  00  00  225  129    0-..... 
 10N 1 0  85 115  00  00  00  00  261  171    0--.... 
 11C 0 0 105 122 171  00  00  00  297  157    0---... 
 12C 1 0 112 131  00  00  00  00  297  129    0--.... 
 13C 1 0 121 142  00  00  00  00  333  115    0--.... 
 14C 0 0 132 155 161  00  00  00  369  129    0---... 
 15BR0 0 145  00  00  00  00  00  405  115    0-..... 
 16C 1 0 141 172  00  00  00  00  369  157    0--.... 
 17C 1 0 111 162  00  00  00  00  333  171    0--.... 
 18CL0-1  00  00  00  00  00  00  151  243    0...... 
70      17  C13H12INO2           1                    
  1N 0 1  22  61 145  00  00  00  133  175    0---... 
  2C 1 0  12  31  00  00  00  00  133  147    0--.... 
  3C 1 0  21  42  00  00  00  00  169  133    0--.... 
  4C 0 0  32  51  75  00  00  00  205  147    0---... 
  5C 1 0  41  62  00  00  00  00  205  175    0--.... 
  6C 1 0  11  52  00  00  00  00  169  189    0--.... 
  7C 0 0  45  85 136  00  00  00  241  133    0---... 
  8O 0 0  75  95  00  00  00  00  277  147    0--.... 
  9C 0 0  85 102 111  00  00  00  313  133    0---... 
 10C 1 0  92 151  00  00  00  00  313  105    0--.... 
 11C 1 0  91 122  00  00  00  00  349  147    0--.... 
 12C 1 0 112 161  00  00  00  00  385  133    0--.... 
 13O 0 0  76  00  00  00  00  00  241  105    0-..... 
 14C 3 0  15  00  00  00  00  00   97  189    0-..... 
 15C 1 0 101 162  00  00  00  00  349   91    0--.... 
 16C 1 0 121 152  00  00  00  00  385  105    0--.... 
 17I 0-1  00  00  00  00  00  00  230  218    0...... 
71      17  C15H16IN             1                    
  1C 1 0  21  62  00  00  00  00  162  206    0--.... 
  2N 0 1  11  32  75  00  00  00  126  192    0---... 
  3C 1 0  22  41  00  00  00  00  126  164    0--.... 
  4C 1 0  31  52  00  00  00  00  162  150    0--.... 
  5C 0 0  42  61  85  00  00  00  198  164    0---... 
  6C 1 0  12  51  00  00  00  00  198  192    0--.... 
  7C 3 0  25  00  00  00  00  00   90  206    0-..... 
  8C 1 0  55  96  00  00  00  00  234  150    0--.... 
  9C 1 0  86 105  00  00  00  00  270  164    0--.... 
 10C 0 0  95 121 152  00  00  00  306  150    0---... 
 11C 1 0 122 171  00  00  00  00  378  150    0--.... 
 12C 0 0 101 112 145  00  00  00  342  164    0---... 
 13I 0-1  00  00  00  00  00  00  121  118    0...... 
 14C 3 0 125  00  00  00  00  00  342  192    0-..... 
 15C 1 0 102 161  00  00  00  00  306  122    0--.... 
 16C 1 0 151 172  00  00  00  00  342  108    0--.... 
 17C 1 0 111 162  00  00  00  00  378  122    0--.... 
72      20  C18H16IN             1                    
  1C 1 0  21  62  00  00  00  00  151  202    0--.... 
  2N 0 1  11  32  75  00  00  00  115  188    0---... 
  3C 1 0  22  41  00  00  00  00  115  160    0--.... 
  4C 1 0  31  52  00  00  00  00  151  146    0--.... 
  5C 0 0  42  61  85  00  00  00  187  160    0---... 
  6C 1 0  12  51  00  00  00  00  187  188    0--.... 
  7C 3 0  25  00  00  00  00  00   79  202    0-..... 
  8C 1 0  55  96  00  00  00  00  223  146    0--.... 
  9C 1 0  86 105  00  00  00  00  259  160    0--.... 
 10C 0 0  95 121 182  00  00  00  295  146    0---... 
 11C 0 0 121 142 201  00  00  00  367  146    0---... 
 12C 0 0 101 111 152  00  00  00  331  160    0---... 
 13I 0-1  00  00  00  00  00  00  110  114    0...... 
 14C 1 0 112 171  00  00  00  00  403  160    0--.... 
 15C 1 0 122 161  00  00  00  00  331  188    0--.... 
 16C 1 0 151 172  00  00  00  00  367  202    0--.... 
 17C 1 0 141 162  00  00  00  00  403  188    0--.... 
 18C 1 0 102 191  00  00  00  00  295  118    0--.... 
 19C 1 0 181 202  00  00  00  00  331  104    0--.... 
 20C 1 0 111 192  00  00  00  00  367  118    0--.... 
[...]
 17C 1 0 131 162  00  00  00  00  336   72    0--.... 
 18C 2 0 165 195  00  00  00  00  408   72    0--.... 
 19C 2 0 185 205  00  00  00  00  444   86    0--.... 
 20O 1 0 195  00  00  00  00  00  444  114    0-..... 
 21CL0-1  00  00  00  00  00  00  359  160    0...... 
147     25  C21ClH26N3           1                    
  1C 1 0  22  61  00  00  00  00   87  212    0--.... 
  2C 1 0  12  31  00  00  00  00   51  198    0--.... 
  3C 1 0  21  42  00  00  00  00   51  170    0--.... 
  4C 1 0  32  51  00  00  00  00   87  156    0--.... 
  5C 0 0  41  62  91  00  00  00  123  170    0---... 
  6C 0 0  11  52  71  00  00  00  123  198    0---... 
  7N 1 0  61  81  00  00  00  00  159  212    0--.... 
  8C 1 0  71  92  00  00  00  00  195  198    0--.... 
  9C 0 0  51  82 105  00  00  00  195  170    0---... 
 10C 1 0  95 116  00  00  00  00  216  146    0--.... 
 11C 1 0 106 125  00  00  00  00  258  146    0--.... 
 12C 0 0 115 132 141  00  00  00  279  122    0---... 
 13C 1 0 122 171  00  00  00  00  279   94    0--.... 
 14C 1 0 121 152  00  00  00  00  315  136    0--.... 
 15C 1 0 142 161  00  00  00  00  351  122    0--.... 
 16N 0 1 151 172 185  00  00  00  351   94    0---... 
 17C 1 0 131 162  00  00  00  00  315   80    0--.... 
 18C 2 0 165 195  00  00  00  00  387   80    0--.... 
 19C 2 0 185 205  00  00  00  00  423   94    0--.... 
 20N 0 0 195 225 245  00  00  00  423  122    0---... 
 21CL0-1  00  00  00  00  00  00  338  168    0...... 
 22C 2 0 205 235  00  00  00  00  402  146    0--.... 
 23C 3 0 225  00  00  00  00  00  402  174    0-..... 
 24C 2 0 205 255  00  00  00  00  444  146    0--.... 
 25C 3 0 245  00  00  00  00  00  444  174    0-..... 
148     23  BrC19H21N2O          1                    
  1C 0 0  22  61 165  00  00  00   78  204    0---... 
  2C 1 0  12  31  00  00  00  00   42  190    0--.... 
  3C 1 0  21  42  00  00  00  00   42  162    0--.... 
  4C 1 0  32  51  00  00  00  00   78  148    0--.... 
  5C 0 0  41  62  91  00  00  00  114  162    0---... 
  6C 0 0  11  52  71  00  00  00  114  190    0---... 
  7N 1 0  61  81  00  00  00  00  150  204    0--.... 
  8C 1 0  71  92  00  00  00  00  186  190    0--.... 
  9C 0 0  51  82 105  00  00  00  186  162    0---... 
 10C 2 0  95 115  00  00  00  00  207  138    0--.... 
 11C 2 0 105 125  00  00  00  00  249  138    0--.... 
 12N 1 0 115 135  00  00  00  00  270  114    0--.... 
 13C 2 0 125 145  00  00  00  00  306  128    0--.... 
 14C 1 0 135 155 175  00  00  00  342  114    0---... 
 15O 1 0 145  00  00  00  00  00  342   86    0-..... 
 16C 3 0  15  00  00  00  00  00   78  232    0-..... 
 17C 0 0 145 181 232  00  00  00  378  128    0---... 
 18C 1 0 171 192  00  00  00  00  414  114    0--.... 
 19C 1 0 182 201  00  00  00  00  450  128    0--.... 
 20C 0 0 191 215 222  00  00  00  450  156    0---... 
 21BR0 0 205  00  00  00  00  00  486  170    0-..... 
 22C 1 0 202 231  00  00  00  00  414  170    0--.... 
 23C 1 0 172 221  00  00  00  00  378  156    0--.... 
149     23  C18ClH19N2O2         1                    
  1C 1 0  22  61  00  00  00  00  147  209    0--.... 
  2C 1 0  12  31  00  00  00  00  111  195    0--.... 
  3C 0 0  21  42 165  00  00  00  111  167    0---... 
  4C 1 0  32  51  00  00  00  00  147  153    0--.... 
  5C 0 0  41  62  91  00  00  00  183  167    0---... 
  6C 0 0  11  52  71  00  00  00  183  195    0---... 
  7N 1 0  61  81  00  00  00  00  219  209    0--.... 
  8C 1 0  71  92  00  00  00  00  255  195    0--.... 
  9C 0 0  51  82 105  00  00  00  255  167    0---... 
 10C 1 0  95 116  00  00  00  00  276  143    0--.... 
 11C 1 0 106 125  00  00  00  00  318  143    0--.... 
 12C 0 0 115 132 181  00  00  00  339  119    0---... 
 13N 0 1 122 141 205  00  00  00  375  133    0---... 
 14C 1 0 131 152  00  00  00  00  411  119    0--.... 
 15C 1 0 142 191  00  00  00  00  411   91    0--.... 
 16O 0 0  35 175  00  00  00  00   90  143    0--.... 
 17C 3 0 165  00  00  00  00  00   90  115    0-..... 
 18C 1 0 121 192  00  00  00  00  339   91    0--.... 
 19C 1 0 151 182  00  00  00  00  375   77    0--.... 
 20C 2 0 135 215  00  00  00  00  375  161    0--.... 
 21C 2 0 205 225  00  00  00  00  411  175    0--.... 
 22O 1 0 215  00  00  00  00  00  453  175    0-..... 
 23CL0-1  00  00  00  00  00  00  359  208    0...... 
150     31  BrC25H20N3O2         1                    
  1C 1 0  22  61  00  00  00  00   78  171    0--.... 
  2C 1 0  12  31  00  00  00  00   42  157    0--.... 
  3C 1 0  21  42  00  00  00  00   42  129    0--.... 
  4C 1 0  32  51  00  00  00  00   78  115    0--.... 
  5C 0 0  41  62  91  00  00  00  114  129    0---... 
  6C 0 0  11  52  71  00  00  00  114  157    0---... 
  7N 1 0  61  81  00  00  00  00  150  171    0--.... 
  8C 1 0  71  92  00  00  00  00  186  157    0--.... 
  9C 0 0  51  82 105  00  00  00  186  129    0---... 
 10C 1 0  95 116  00  00  00  00  207  105    0--.... 
 11C 1 0 106 125  00  00  00  00  249  105    0--.... 
 12C 0 0 115 132 161  00  00  00  270   81    0---... 
 13N 0 1 122 141 185  00  00  00  306   95    0---... 
 14C 1 0 131 152  00  00  00  00  342   81    0--.... 
 15C 1 0 142 171  00  00  00  00  342   53    0--.... 
 16C 1 0 121 172  00  00  00  00  270   53    0--.... 
 17C 1 0 151 162  00  00  00  00  306   39    0--.... 
 18C 2 0 135 205  00  00  00  00  306  123    0--.... 
 19BR0-1  00  00  00  00  00  00  290  170    0...... 
 20C 2 0 185 215  00  00  00  00  342  137    0--.... 
 21N 0 0 205 221 231  00  00  00  363  160    0---... 
 22C 0 0 211 256 261  00  00  00  342  184    0---... 
 23C 0 0 211 246 271  00  00  00  405  160    0---... 
 24O 0 0 236  00  00  00  00  00  441  146    0-..... 
 25O 0 0 226  00  00  00  00  00  306  198    0-..... 
 26C 0 0 221 272 311  00  00  00  379  203    0---... 
 27C 0 0 231 262 281  00  00  00  415  189    0---... 
 28C 1 0 271 292  00  00  00  00  451  203    0--.... 
 29C 1 0 282 301  00  00  00  00  451  231    0--.... 
 30C 1 0 291 312  00  00  00  00  415  245    0--.... 
 31C 1 0 261 302  00  00  00  00  379  231    0--.... 
151     23  C19H20N2O2           1                    
  1C 1 0  22  61  00  00  00  00  122  166    0--.... 
  2C 1 0  12  31  00  00  00  00   86  152    0--.... 
  3C 1 0  21  42  00  00  00  00   86  124    0--.... 
  4C 1 0  32  51  00  00  00  00  122  110    0--.... 
  5C 0 0  41  62  91  00  00  00  158  124    0---... 
  6C 0 0  11  52  71  00  00  00  158  152    0---... 
  7N 1 0  61  81  00  00  00  00  194  166    0--.... 
  8C 1 0  71  92  00  00  00  00  230  152    0--.... 
  9C 0 0  51  82 105  00  00  00  230  124    0---... 
 10C 0 0  95 115 126  00  00  00  251  100    0---... 
 11C 1 0 105 135 235  00  00  00  293  100    0---... 
 12O 0 0 106  00  00  00  00  00  230   76    0-..... 
 13N 1 0 115 145  00  00  00  00  314  124    0--.... 
 14C 2 0 135 155  00  00  00  00  356  124    0--.... 
 15C 1 0 145 165 175  00  00  00  377  148    0---... 
 16O 1 0 155  00  00  00  00  00  419  148    0-..... 
 17C 0 0 155 182 221  00  00  00  356  172    0---... 
 18C 1 0 172 191  00  00  00  00  314  172    0--.... 
 19C 1 0 181 202  00  00  00  00  293  196    0--.... 
 20C 1 0 192 211  00  00  00  00  314  220    0--.... 
 21C 1 0 201 222  00  00  00  00  356  220    0--.... 
 22C 1 0 171 212  00  00  00  00  377  196    0--.... 
 23C 3 0 115  00  00  00  00  00  314   76    0-..... 
152     20  C16H17N3O            1                    
  1N 0 0  21  62  00  00  00  00   62  160    0--.... 
  2C 1 0  11  32  00  00  00  00   83  136    0--.... 
  3C 1 0  22  41  00  00  00  00  125  136    0--.... 
  4C 0 0  31  52  75  00  00  00  146  160    0---... 
  5C 1 0  42  61  00  00  00  00  125  184    0--.... 
  6C 1 0  12  51  00  00  00  00   83  184    0--.... 
  7C 0 0  45  86  95  00  00  00  188  160    0---... 
  8O 0 0  76  00  00  00  00  00  188  132    0-..... 
  9N 0 0  75 101 141  00  00  00  230  160    0---... 
 10C 2 0  91 111  00  00  00  00  251  136    0--.... 
 11C 2 0 101 121  00  00  00  00  293  136    0--.... 
 12N 0 0 111 131 155  00  00  00  314  160    0---... 
 13C 2 0 121 141  00  00  00  00  293  184    0--.... 
 14C 2 0  91 131  00  00  00  00  251  184    0--.... 
 15C 0 0 125 162 201  00  00  00  356  160    0---... 
 16C 1 0 152 171  00  00  00  00  377  136    0--.... 
 17C 1 0 161 182  00  00  00  00  419  136    0--.... 
 18C 1 0 172 191  00  00  00  00  440  160    0--.... 
 19C 1 0 181 202  00  00  00  00  419  184    0--.... 
 20C 1 0 151 192  00  00  00  00  377  184    0--.... 
153     19  C14H12N2O3           1                    
  1N 0 0  21  62  00  00  00  00   97  143    0--.... 
  2C 1 0  11  32  00  00  00  00  118  119    0--.... 
  3C 1 0  22  41  00  00  00  00  160  119    0--.... 
  4C 0 0  31  52  75  00  00  00  181  143    0---... 
  5C 1 0  42  61  00  00  00  00  160  167    0--.... 
  6C 1 0  12  51  00  00  00  00  118  167    0--.... 
  7C 0 0  45  86  95  00  00  00  223  143    0---... 
  8O 0 0  76  00  00  00  00  00  244  119    0-..... 
  9N 1 0  75 105  00  00  00  00  244  167    0--.... 
 10C 2 0  95 115  00  00  00  00  286  167    0--.... 
 11C 0 0 105 122 161  00  00  00  322  153    0---... 
 12C 1 0 112 131  00  00  00  00  322  125    0--.... 
 13C 1 0 121 142  00  00  00  00  358  111    0--.... 
 14C 0 0 132 151 171  00  00  00  394  125    0---... 
 15C 0 0 141 162 181  00  00  00  394  153    0---... 
 16C 1 0 111 152  00  00  00  00  358  167    0--.... 
 17O 0 0 141 191  00  00  00  00  430  111    0--.... 
 18O 0 0 151 191  00  00  00  00  430  167    0--.... 
 19C 2 0 171 181  00  00  00  00  458  135    0--.... 
154     21  C15H15IN2O3          1                    
  1N 0 1  21  62 205  00  00  00   97  143    0---... 
  2C 1 0  11  32  00  00  00  00  118  119    0--.... 
  3C 1 0  22  41  00  00  00  00  160  119    0--.... 
  4C 0 0  31  52  75  00  00  00  181  143    0---... 
  5C 1 0  42  61  00  00  00  00  160  167    0--.... 
  6C 1 0  12  51  00  00  00  00  118  167    0--.... 
  7C 0 0  45  86  95  00  00  00  223  143    0---... 
  8O 0 0  76  00  00  00  00  00  244  119    0-..... 
  9N 1 0  75 105  00  00  00  00  244  167    0--.... 
 10C 2 0  95 115  00  00  00  00  286  167    0--.... 
 11C 0 0 105 122 161  00  00  00  322  153    0---... 
 12C 1 0 112 131  00  00  00  00  322  125    0--.... 
 13C 1 0 121 142  00  00  00  00  358  111    0--.... 
 14C 0 0 132 151 171  00  00  00  394  125    0---... 
 15C 0 0 141 162 181  00  00  00  394  153    0---... 
 16C 1 0 111 152  00  00  00  00  358  167    0--.... 
 17O 0 0 141 191  00  00  00  00  430  111    0--.... 
 18O 0 0 151 191  00  00  00  00  430  167    0--.... 
 19C 2 0 171 181  00  00  00  00  458  135    0--.... 
 20C 3 0  15  00  00  00  00  00   55  143    0-..... 
 21I 0-1  00  00  00  00  00  00  127  216    0...... 
155     20  C15H18N2O3           1                    
  1N 0 0  21  61 205  00  00  00   97  159    0---... 
  2C 2 0  11  31  00  00  00  00  118  135    0--.... 
  3C 2 0  21  41  00  00  00  00  160  135    0--.... 
  4C 0 0  31  52  75  00  00  00  181  159    0---... 
  5C 1 0  42  61  00  00  00  00  160  183    0--.... 
  6C 2 0  11  51  00  00  00  00  118  183    0--.... 
  7C 0 0  45  86  95  00  00  00  223  159    0---... 
  8O 0 0  76  00  00  00  00  00  244  135    0-..... 
  9N 1 0  75 105  00  00  00  00  244  183    0--.... 
 10C 2 0  95 115  00  00  00  00  286  183    0--.... 
 11C 0 0 105 122 161  00  00  00  322  169    0---... 
 12C 1 0 112 131  00  00  00  00  322  141    0--.... 
 13C 1 0 121 142  00  00  00  00  358  127    0--.... 
 14C 0 0 132 151 171  00  00  00  394  141    0---... 
 15C 0 0 141 162 181  00  00  00  394  169    0---... 
 16C 1 0 111 152  00  00  00  00  358  183    0--.... 
 17O 0 0 141 191  00  00  00  00  430  127    0--.... 
 18O 0 0 151 191  00  00  00  00  430  183    0--.... 
 19C 2 0 171 181  00  00  00  00  458  151    0--.... 
 20C 3 0  15  00  00  00  00  00   55  159    0-..... 
156     24  C18H21IN2O3          1                    
  1N 0 1  21  62 115  00  00  00   97  143    0---... 
  2C 1 0  11  32  00  00  00  00  118  119    0--.... 
  3C 1 0  22  41  00  00  00  00  160  119    0--.... 
  4C 0 0  31  52  75  00  00  00  181  143    0---... 
  5C 1 0  42  61  00  00  00  00  160  167    0--.... 
  6C 1 0  12  51  00  00  00  00  118  167    0--.... 
  7C 0 0  45  86  95  00  00  00  223  143    0---... 
  8O 0 0  76  00  00  00  00  00  244  119    0-..... 
  9N 0 0  75 105 135  00  00  00  244  167    0---... 
 10C 1 0  95 145 155  00  00  00  286  167    0---... 
 11C 3 0  15  00  00  00  00  00   55  143    0-..... 
 12I 0-1  00  00  00  00  00  00  127  216    0...... 
 13C 3 0  95  00  00  00  00  00  223  191    0-..... 
 14C 3 0 105  00  00  00  00  00  307  191    0-..... 
 15C 2 0 105 165  00  00  00  00  307  143    0--.... 
 16C 0 0 155 171 212  00  00  00  349  143    0---... 
 17C 1 0 161 182  00  00  00  00  370  119    0--.... 
 18C 0 0 172 191 231  00  00  00  412  119    0---... 
 19C 0 0 181 202 221  00  00  00  433  143    0---... 
 20C 1 0 192 211  00  00  00  00  412  167    0--.... 
 21C 1 0 162 201  00  00  00  00  370  167    0--.... 
 22O 0 0 191 241  00  00  00  00  475  143    0--.... 
 23O 0 0 181 241  00  00  00  00  433   95    0--.... 
 24C 2 0 221 231  00  00  00  00  469  109    0--.... 
157     18  C13FH7N2O2           1                    
  1F 0 0  25  00  00  00  00  00   94  132    0-..... 
  2C 0 0  15  31  72  00  00  00  130  146    0---... 
  3C 1 0  21  42  00  00  00  00  130  174    0--.... 
  4C 1 0  32  51  00  00  00  00  166  188    0--.... 
  5C 0 0  41  62  91  00  00  00  202  174    0---... 
  6C 0 0  52  71  81  00  00  00  202  146    0---... 
  7C 1 0  22  61  00  00  00  00  166  132    0--.... 
  8C 0 0  61 116 121  00  00  00  238  132    0---... 
  9C 0 0  51 106 121  00  00  00  238  188    0---... 
 10O 0 0  96  00  00  00  00  00  238  216    0-..... 
 11O 0 0  86  00  00  00  00  00  238  104    0-..... 
 12N 0 0  81  91 135  00  00  00  273  158    0---... 
 13C 0 0 125 141 182  00  00  00  315  158    0---... 
 14C 1 0 131 152  00  00  00  00  336  134    0--.... 
 15C 1 0 142 161  00  00  00  00  378  134    0--.... 
 16N 0 0 151 172  00  00  00  00  399  158    0--.... 
 17C 1 0 162 181  00  00  00  00  378  182    0--.... 
 18C 1 0 132 171  00  00  00  00  336  182    0--.... 
158     24  C19H21NO4            1                    
  1C 0 0  22  81  95  00  00  00   79  189    0---... 
  2C 1 0  12  31  00  00  00  00   58  165    0--.... 
  3C 1 0  21  42  00  00  00  00   79  141    0--.... 
  4C 0 0  32  55  71  00  00  00  121  141    0---... 
  5C 1 0  45  65 105  00  00  00  142  117    0---... 
  6C 3 0  55  00  00  00  00  00  121   93    0-..... 
  7C 0 0  41  82 115  00  00  00  142  165    0---... 
  8C 1 0  11  72  00  00  00  00  121  189    0--.... 
  9C 3 0  15  00  00  00  00  00   58  213    0-..... 
 10C 3 0  55  00  00  00  00  00  184  117    0-..... 
 11O 0 0  75 125  00  00  00  00  184  165    0--.... 
 12C 2 0 115 135  00  00  00  00  205  189    0--.... 
 13C 0 0 125 146 155  00  00  00  247  189    0---... 
 14O 0 0 136  00  00  00  00  00  268  213    0-..... 
 15N 1 0 135 165  00  00  00  00  268  165    0--.... 
 16C 0 0 155 172 211  00  00  00  310  165    0---... 
 17C 1 0 162 181  00  00  00  00  331  141    0--.... 
 18C 1 0 171 192  00  00  00  00  373  141    0--.... 
 19C 0 0 182 201 225  00  00  00  394  165    0---... 
 20C 1 0 191 212  00  00  00  00  373  189    0--.... 
 21C 1 0 161 202  00  00  00  00  331  189    0--.... 
 22C 0 0 195 236 245  00  00  00  436  165    0---... 
 23O 0 0 226  00  00  00  00  00  457  141    0-..... 
 24O 1 0 225  00  00  00  00  00  457  189    0-..... 
159     22  C15H14N2O5           1                    
  1C 1 0  22  61  00  00  00  00   83  205    0--.... 
  2C 1 0  12  31  00  00  00  00   47  191    0--.... 
  3C 1 0  21  42  00  00  00  00   47  163    0--.... 
  4C 1 0  32  51  00  00  00  00   83  149    0--.... 
  5C 0 0  41  62  91  00  00  00  119  163    0---... 
  6C 0 0  11  52  71  00  00  00  119  191    0---... 
  7N 1 0  61  81  00  00  00  00  155  205    0--.... 
  8C 1 0  71  92  00  00  00  00  191  191    0--.... 
  9C 0 0  51  82 105  00  00  00  191  163    0---... 
 10C 2 0  95 115  00  00  00  00  212  139    0--.... 
 11C 1 0 105 125 135  00  00  00  254  139    0---... 
 12N 1 0 115 165  00  00  00  00  275  115    0--.... 
 13C 0 0 115 146 155  00  00  00  275  163    0---... 
 14O 0 0 136  00  00  00  00  00  314  163    0-..... 
 15O 1 0 135  00  00  00  00  00  258  189    0-..... 
 16C 0 0 125 176 185  00  00  00  317  115    0---... 
 17O 0 0 166  00  00  00  00  00  338  139    0-..... 
 18C 1 0 165 196  00  00  00  00  338   91    0--.... 
 19C 1 0 186 205  00  00  00  00  380   91    0--.... 
 20C 0 0 195 216 225  00  00  00  401  115    0---... 
 21O 0 0 206  00  00  00  00  00  440  115    0-..... 
 22O 1 0 205  00  00  00  00  00  384  141    0-..... 
160     22  C18ClH15N2O          1                    
  1C 1 0  22  61  00  00  00  00  123  193    0--.... 
  2C 1 0  12  31  00  00  00  00   87  179    0--.... 
  3C 1 0  21  42  00  00  00  00   87  151    0--.... 
  4C 1 0  32  51  00  00  00  00  123  137    0--.... 
  5C 0 0  41  62  91  00  00  00  159  151    0---... 
  6C 0 0  11  52  71  00  00  00  159  179    0---... 
  7N 1 0  61  81  00  00  00  00  195  193    0--.... 
  8C 1 0  71  91 145  00  00  00  231  179    0---... 
  9C 1 0  51  81 105  00  00  00  231  151    0---... 
 10C 0 0  95 115 136  00  00  00  252  127    0---... 
 11C 2 0 105 125  00  00  00  00  294  127    0--.... 
 12CL0 0 115  00  00  00  00  00  315  103    0-..... 
 13O 0 0 106  00  00  00  00  00  231  103    0-..... 
 14C 0 0  85 152 161  00  00  00  273  179    0---... 
 15C 1 0 142 221  00  00  00  00  273  207    0--.... 
 16N 1 0 141 171  00  00  00  00  309  165    0--.... 
 17C 0 0 161 181 222  00  00  00  345  179    0---... 
 18C 1 0 171 192  00  00  00  00  381  165    0--.... 
 19C 1 0 182 201  00  00  00  00  417  179    0--.... 
 20C 1 0 191 212  00  00  00  00  417  207    0--.... 
 21C 1 0 202 221  00  00  00  00  381  221    0--.... 
 22C 0 0 151 172 211  00  00  00  345  207    0---... 
161     11  C9H16O2              1                    
  1C 2 0  21  61  00  00  00  00  148  139    0--.... 
  2C 2 0  11  31  00  00  00  00  169  115    0--.... 
  3C 1 0  21  41  71  00  00  00  211  115    0---... 
  4C 2 0  31  51  00  00  00  00  232  139    0--.... 
  5C 1 0  41  61  91  00  00  00  211  163    0---... 
  6C 1 0  51  11 115  00  00  00  169  163    0---... 
  7C 1 0  31  81 105  00  00  00  253  115    0---... 
  8C 2 0  71  91  00  00  00  00  274  139    0--.... 
  9C 2 0  81  51  00  00  00  00  253  163    0--.... 
 10O 1 0  75  00  00  00  00  00  274   91    0-..... 
 11O 1 0  65  00  00  00  00  00  148  187    0-..... 
162     10  C9H14O               1                    
  1C 2 0  21  41  00  00  00  00  184  148    0--.... 
  2C 1 0  11  31  91  00  00  00  234  140    0---... 
  3C 2 0  21  81  00  00  00  00  284  146    0--.... 
  4C 1 0  11  51  81  00  00  00  199  188    0---... 
  5C 2 0  41  61  00  00  00  00  220  164    0--.... 
  6C 1 0  51  71  91  00  00  00  256  150    0---... 
  7C 2 0  61  81  00  00  00  00  297  157    0--.... 
  8C 0 0  31  41  71 105  00  00  276  181    0----.. 
  9C 2 0  21  61  00  00  00  00  234  112    0--.... 
 10O 1 0  85  00  00  00  00  00  297  205    0-..... 
