1        1  CH4                  1                    
  1C 4 0  00  00  00  00  00  00  229  138    0...... 
2        2  C2H6                 1                    
  1C 3 0  25  00  00  00  00  00  229  138    0-..... 
  2C 3 0  15  00  00  00  00  00  187  138    0-..... 
3        3  C3H8                 1                    
  1C 3 0  25  00  00  00  00  00  179  149    0-..... 
  2C 2 0  15  35  00  00  00  00  215  135    0--.... 
  3C 3 0  25  00  00  00  00  00  251  149    0-..... 
4        4  C4H10                1                    
  1C 3 0  25  00  00  00  00  00  179  149    0-..... 
  2C 2 0  15  35  00  00  00  00  215  135    0--.... 
  3C 2 0  25  45  00  00  00  00  251  149    0--.... 
  4C 3 0  35  00  00  00  00  00  287  135    0-..... 
5        5  C5H12                1                    
  1C 2 0  25  55  00  00  00  00  179  149    0--.... 
  2C 2 0  15  35  00  00  00  00  215  135    0--.... 
  3C 2 0  25  45  00  00  00  00  251  149    0--.... 
  4C 3 0  35  00  00  00  00  00  287  135    0-..... 
  5C 3 0  15  00  00  00  00  00  143  135    0-..... 
6        6  C6H14                1                    
  1C 2 0  25  55  00  00  00  00  179  149    0--.... 
  2C 2 0  15  35  00  00  00  00  215  135    0--.... 
  3C 2 0  25  45  00  00  00  00  251  149    0--.... 
  4C 2 0  35  65  00  00  00  00  287  135    0--.... 
  5C 3 0  15  00  00  00  00  00  143  135    0-..... 
  6C 3 0  45  00  00  00  00  00  323  149    0-..... 
7        7  C7H16                1                    
  1C 2 0  25  55  00  00  00  00  179  149    0--.... 
  2C 2 0  15  35  00  00  00  00  215  135    0--.... 
  3C 2 0  25  45  00  00  00  00  251  149    0--.... 
  4C 2 0  35  65  00  00  00  00  287  135    0--.... 
  5C 3 0  15  00  00  00  00  00  143  135    0-..... 
  6C 2 0  45  75  00  00  00  00  323  149    0--.... 
  7C 3 0  65  00  00  00  00  00  359  135    0-..... 
8        8  C8H18                1                    
  1C 2 0  25  55  00  00  00  00  179  149    0--.... 
  2C 2 0  15  35  00  00  00  00  215  135    0--.... 
  3C 2 0  25  45  00  00  00  00  251  149    0--.... 
  4C 2 0  35  65  00  00  00  00  287  135    0--.... 
  5C 2 0  15  85  00  00  00  00  143  135    0--.... 
  6C 2 0  45  75  00  00  00  00  323  149    0--.... 
  7C 3 0  65  00  00  00  00  00  359  135    0-..... 
  8C 3 0  55  00  00  00  00  00  107  149    0-..... 
9        9  C9H20                1                    
  1C 2 0  25  55  00  00  00  00  179  149    0--.... 
  2C 2 0  15  35  00  00  00  00  215  135    0--.... 
  3C 2 0  25  45  00  00  00  00  251  149    0--.... 
  4C 2 0  35  65  00  00  00  00  287  135    0--.... 
  5C 2 0  15  85  00  00  00  00  143  135    0--.... 
  6C 2 0  45  75  00  00  00  00  323  149    0--.... 
  7C 2 0  65  95  00  00  00  00  359  135    0--.... 
  8C 3 0  55  00  00  00  00  00  107  149    0-..... 
  9C 3 0  75  00  00  00  00  00  395  149    0-..... 
10      10  C10H22               1                    
  1C 2 0  25  55  00  00  00  00  179  149    0--.... 
  2C 2 0  15  35  00  00  00  00  215  135    0--.... 
  3C 2 0  25  45  00  00  00  00  251  149    0--.... 
  4C 2 0  35  65  00  00  00  00  287  135    0--.... 
  5C 2 0  15  85  00  00  00  00  143  135    0--.... 
  6C 2 0  45  75  00  00  00  00  323  149    0--.... 
  7C 2 0  65  95  00  00  00  00  359  135    0--.... 
  8C 2 0  55 105  00  00  00  00  107  149    0--.... 
  9C 3 0  75  00  00  00  00  00  395  149    0-..... 
 10C 3 0  85  00  00  00  00  00   71  135    0-..... 
11      11  C11H24               1                    
  1C 2 0  25  55  00  00  00  00  179  149    0--.... 
  2C 2 0  15  35  00  00  00  00  215  135    0--.... 
  3C 2 0  25  45  00  00  00  00  251  149    0--.... 
  4C 2 0  35  65  00  00  00  00  287  135    0--.... 
  5C 2 0  15  85  00  00  00  00  143  135    0--.... 
  6C 2 0  45  75  00  00  00  00  323  149    0--.... 
  7C 2 0  65  95  00  00  00  00  359  135    0--.... 
  8C 2 0  55 105  00  00  00  00  107  149    0--.... 
  9C 2 0  75 115  00  00  00  00  395  149    0--.... 
 10C 3 0  85  00  00  00  00  00   71  135    0-..... 
 11C 3 0  95  00  00  00  00  00  431  135    0-..... 
12      12  C12H26               1                    
  1C 2 0  25  55  00  00  00  00  179  149    0--.... 
  2C 2 0  15  35  00  00  00  00  215  135    0--.... 
  3C 2 0  25  45  00  00  00  00  251  149    0--.... 
  4C 2 0  35  65  00  00  00  00  287  135    0--.... 
  5C 2 0  15  85  00  00  00  00  143  135    0--.... 
  6C 2 0  45  75  00  00  00  00  323  149    0--.... 
  7C 2 0  65  95  00  00  00  00  359  135    0--.... 
  8C 2 0  55 105  00  00  00  00  107  149    0--.... 
  9C 2 0  75 115  00  00  00  00  395  149    0--.... 
 10C 2 0  85 125  00  00  00  00   71  135    0--.... 
 11C 3 0  95  00  00  00  00  00  431  135    0-..... 
 12C 3 0 105  00  00  00  00  00   35  149    0-..... 
13       4  C4H10                1                    
  1C 3 0  35  00  00  00  00  00  179  149    0-..... 
  2C 3 0  35  00  00  00  00  00  251  149    0-..... 
  3C 1 0  15  25  45  00  00  00  215  135    0---... 
  4C 3 0  35  00  00  00  00  00  215  107    0-..... 
14       5  C5H12                1                    
  1C 3 0  35  00  00  00  00  00  179  149    0-..... 
  2C 3 0  35  00  00  00  00  00  251  149    0-..... 
  3C 0 0  15  25  45  55  00  00  215  135    0----.. 
  4C 3 0  35  00  00  00  00  00  215  107    0-..... 
  5C 3 0  35  00  00  00  00  00  215  163    0-..... 
15       5  C5H10                1                    
  1C 2 0  21  51  00  00  00  00  197  137    0--.... 
  2C 2 0  11  31  00  00  00  00  237  118    0--.... 
  3C 2 0  21  41  00  00  00  00  277  137    0--.... 
  4C 2 0  31  51  00  00  00  00  262  169    0--.... 
  5C 2 0  41  11  00  00  00  00  212  169    0--.... 
16       6  C6H12                1                    
  1C 2 0  21  61  00  00  00  00  225  169    0--.... 
  2C 2 0  11  31  00  00  00  00  189  155    0--.... 
  3C 2 0  21  41  00  00  00  00  189  127    0--.... 
  4C 2 0  31  51  00  00  00  00  225  113    0--.... 
  5C 2 0  41  61  00  00  00  00  261  127    0--.... 
  6C 2 0  51  11  00  00  00  00  261  155    0--.... 
17       8  C8H18                1                    
  1C 3 0  25  00  00  00  00  00  124  149    0-..... 
  2C 2 0  15  35  00  00  00  00  160  135    0--.... 
  3C 1 0  25  45  85  00  00  00  196  149    0---... 
  4C 2 0  35  55  00  00  00  00  232  135    0--.... 
  5C 2 0  45  65  00  00  00  00  268  149    0--.... 
  6C 2 0  55  75  00  00  00  00  304  135    0--.... 
  7C 3 0  65  00  00  00  00  00  340  149    0-..... 
  8C 3 0  35  00  00  00  00  00  196  177    0-..... 
18       8  C8H18                1                    
  1C 2 0  25  45  00  00  00  00  232  135    0--.... 
  2C 1 0  15  35  85  00  00  00  268  149    0---... 
  3C 3 0  25  00  00  00  00  00  304  135    0-..... 
  4C 0 0  15  55  65  75  00  00  196  149    0----.. 
  5C 3 0  45  00  00  00  00  00  160  135    0-..... 
  6C 3 0  45  00  00  00  00  00  196  177    0-..... 
  7C 3 0  45  00  00  00  00  00  196  121    0-..... 
  8C 3 0  25  00  00  00  00  00  268  177    0-..... 
19       2  CFH3                 1                    
  1C 3 0  25  00  00  00  00  00  196  149    0-..... 
  2F 0 0  15  00  00  00  00  00  238  149    0-..... 
20       6  C5FH11               1                    
  1C 3 0  25  00  00  00  00  00  121  159    0-..... 
  2C 2 0  15  35  00  00  00  00  157  145    0--.... 
  3C 2 0  25  45  00  00  00  00  193  159    0--.... 
  4C 2 0  35  55  00  00  00  00  229  145    0--.... 
  5C 2 0  45  65  00  00  00  00  265  159    0--.... 
  6F 0 0  55  00  00  00  00  00  301  145    0-..... 
21       7  C6FH13               1                    
  1C 2 0  25  75  00  00  00  00  121  159    0--.... 
  2C 2 0  15  35  00  00  00  00  157  145    0--.... 
  3C 2 0  25  45  00  00  00  00  193  159    0--.... 
  4C 2 0  35  55  00  00  00  00  229  145    0--.... 
  5C 2 0  45  65  00  00  00  00  265  159    0--.... 
  6F 0 0  55  00  00  00  00  00  301  145    0-..... 
  7C 3 0  15  00  00  00  00  00   85  145    0-..... 
22       8  C7FH15               1                    
  1C 2 0  25  65  00  00  00  00  121  159    0--.... 
  2C 2 0  15  35  00  00  00  00  157  145    0--.... 
  3C 2 0  25  45  00  00  00  00  193  159    0--.... 
  4C 2 0  35  55  00  00  00  00  229  145    0--.... 
  5C 2 0  45  75  00  00  00  00  265  159    0--.... 
  6C 3 0  15  00  00  00  00  00   85  145    0-..... 
  7C 2 0  55  85  00  00  00  00  301  145    0--.... 
  8F 0 0  75  00  00  00  00  00  337  159    0-..... 
23       9  C8FH17               1                    
  1C 2 0  25  65  00  00  00  00  121  159    0--.... 
  2C 2 0  15  35  00  00  00  00  157  145    0--.... 
  3C 2 0  25  45  00  00  00  00  193  159    0--.... 
  4C 2 0  35  55  00  00  00  00  229  145    0--.... 
  5C 2 0  45  75  00  00  00  00  265  159    0--.... 
  6C 3 0  15  00  00  00  00  00   85  145    0-..... 
  7C 2 0  55  85  00  00  00  00  301  145    0--.... 
  8C 2 0  75  95  00  00  00  00  337  159    0--.... 
  9F 0 0  85  00  00  00  00  00  373  145    0-..... 
24      10  C9FH19               1                    
  1C 2 0  25  65  00  00  00  00  121  159    0--.... 
  2C 2 0  15  35  00  00  00  00  157  145    0--.... 
  3C 2 0  25  45  00  00  00  00  193  159    0--.... 
  4C 2 0  35  55  00  00  00  00  229  145    0--.... 
  5C 2 0  45  75  00  00  00  00  265  159    0--.... 
  6C 2 0  15 105  00  00  00  00   85  145    0--.... 
  7C 2 0  55  85  00  00  00  00  301  145    0--.... 
  8C 2 0  75  95  00  00  00  00  337  159    0--.... 
  9F 0 0  85  00  00  00  00  00  373  145    0-..... 
 10C 3 0  65  00  00  00  00  00   49  159    0-..... 
25      11  C10FH21              1                    
  1C 2 0  25  65  00  00  00  00  121  159    0--.... 
  2C 2 0  15  35  00  00  00  00  157  145    0--.... 
  3C 2 0  25  45  00  00  00  00  193  159    0--.... 
  4C 2 0  35  55  00  00  00  00  229  145    0--.... 
  5C 2 0  45  75  00  00  00  00  265  159    0--.... 
  6C 2 0  15  95  00  00  00  00   85  145    0--.... 
  7C 2 0  55  85  00  00  00  00  301  145    0--.... 
  8C 2 0  75 105  00  00  00  00  337  159    0--.... 
  9C 3 0  65  00  00  00  00  00   49  159    0-..... 
 10C 2 0  85 115  00  00  00  00  373  145    0--.... 
 11F 0 0 105  00  00  00  00  00  409  159    0-..... 
26      12  C11FH23              1                    
  1C 2 0  25  65  00  00  00  00  121  159    0--.... 
  2C 2 0  15  35  00  00  00  00  157  145    0--.... 
  3C 2 0  25  45  00  00  00  00  193  159    0--.... 
  4C 2 0  35  55  00  00  00  00  229  145    0--.... 
  5C 2 0  45  75  00  00  00  00  265  159    0--.... 
  6C 2 0  15  95  00  00  00  00   85  145    0--.... 
  7C 2 0  55  85  00  00  00  00  301  145    0--.... 
  8C 2 0  75 105  00  00  00  00  337  159    0--.... 
  9C 3 0  65  00  00  00  00  00   49  159    0-..... 
 10C 2 0  85 115  00  00  00  00  373  145    0--.... 
 11C 2 0 105 125  00  00  00  00  409  159    0--.... 
 12F 0 0 115  00  00  00  00  00  445  145    0-..... 
27      13  C12FH25              1                    
  1C 2 0  25  65  00  00  00  00  121  159    0--.... 
  2C 2 0  15  35  00  00  00  00  157  145    0--.... 
  3C 2 0  25  45  00  00  00  00  193  159    0--.... 
  4C 2 0  35  55  00  00  00  00  229  145    0--.... 
  5C 2 0  45  75  00  00  00  00  265  159    0--.... 
  6C 2 0  15  95  00  00  00  00   85  145    0--.... 
  7C 2 0  55  85  00  00  00  00  301  145    0--.... 
  8C 2 0  75 105  00  00  00  00  337  159    0--.... 
  9C 3 0  65  00  00  00  00  00   49  159    0-..... 
 10C 2 0  85 115  00  00  00  00  373  145    0--.... 
 11C 2 0 105 125  00  00  00  00  409  159    0--.... 
 12C 2 0 115 135  00  00  00  00  445  145    0--.... 
 13F 0 0 125  00  00  00  00  00  481  159    0-..... 
28      15  C14FH29              1                    
  1C 2 0  25  65  00  00  00  00  121  159    0--.... 
  2C 2 0  15  35  00  00  00  00  157  145    0--.... 
  3C 2 0  25  45  00  00  00  00  193  159    0--.... 
  4C 2 0  35  55  00  00  00  00  229  145    0--.... 
  5C 2 0  45  75  00  00  00  00  265  159    0--.... 
  6C 2 0  15  95  00  00  00  00   85  145    0--.... 
  7C 2 0  55  85  00  00  00  00  301  145    0--.... 
  8C 2 0  75 105  00  00  00  00  337  159    0--.... 
  9C 2 0  65 145  00  00  00  00   49  159    0--.... 
 10C 2 0  85 115  00  00  00  00  373  145    0--.... 
 11C 2 0 105 125  00  00  00  00  409  159    0--.... 
 12C 2 0 115 135  00  00  00  00  445  145    0--.... 
 13F 0 0 125  00  00  00  00  00  481  159    0-..... 
 14C 2 0  95 155  00  00  00  00   49  187    0--.... 
 15C 3 0 145  00  00  00  00  00   85  201    0-..... 
29       2  BrCH3                1                    
  1C 3 0  25  00  00  00  00  00  229  145    0-..... 
  2BR0 0  15  00  00  00  00  00  271  145    0-..... 
30       3  BrC2H5               1                    
  1BR0 0  25  00  00  00  00  00  271  145    0-..... 
  2C 2 0  15  35  00  00  00  00  235  159    0--.... 
  3C 3 0  25  00  00  00  00  00  199  145    0-..... 
31       4  BrC3H7               1                    
  1BR0 0  25  00  00  00  00  00  271  145    0-..... 
  2C 2 0  15  35  00  00  00  00  235  159    0--.... 
  3C 2 0  25  45  00  00  00  00  199  145    0--.... 
  4C 3 0  35  00  00  00  00  00  163  159    0-..... 
32       5  BrC4H9               1                    
  1BR0 0  25  00  00  00  00  00  271  145    0-..... 
  2C 2 0  15  35  00  00  00  00  235  159    0--.... 
  3C 2 0  25  45  00  00  00  00  199  145    0--.... 
  4C 2 0  35  55  00  00  00  00  163  159    0--.... 
  5C 3 0  45  00  00  00  00  00  127  145    0-..... 
33       6  BrC5H11              1                    
  1BR0 0  25  00  00  00  00  00  271  145    0-..... 
  2C 2 0  15  35  00  00  00  00  235  159    0--.... 
  3C 2 0  25  45  00  00  00  00  199  145    0--.... 
  4C 2 0  35  55  00  00  00  00  163  159    0--.... 
  5C 2 0  45  65  00  00  00  00  127  145    0--.... 
  6C 3 0  55  00  00  00  00  00   91  159    0-..... 
34       7  BrC6H13              1                    
  1BR0 0  25  00  00  00  00  00  271  145    0-..... 
  2C 2 0  15  35  00  00  00  00  235  159    0--.... 
  3C 2 0  25  45  00  00  00  00  199  145    0--.... 
  4C 2 0  35  55  00  00  00  00  163  159    0--.... 
  5C 2 0  45  65  00  00  00  00  127  145    0--.... 
  6C 2 0  55  75  00  00  00  00   91  159    0--.... 
  7C 3 0  65  00  00  00  00  00   55  145    0-..... 
35       8  BrC7H15              1                    
  1BR0 0  25  00  00  00  00  00  271  145    0-..... 
  2C 2 0  15  35  00  00  00  00  235  159    0--.... 
  3C 2 0  25  45  00  00  00  00  199  145    0--.... 
  4C 2 0  35  55  00  00  00  00  163  159    0--.... 
  5C 2 0  45  65  00  00  00  00  127  145    0--.... 
  6C 2 0  55  75  00  00  00  00   91  159    0--.... 
  7C 2 0  65  85  00  00  00  00   55  145    0--.... 
  8C 3 0  75  00  00  00  00  00   19  159    0-..... 
36       9  BrC8H17              1                    
  1C 2 0  25  85  00  00  00  00  235  159    0--.... 
  2C 2 0  15  35  00  00  00  00  199  145    0--.... 
  3C 2 0  25  45  00  00  00  00  163  159    0--.... 
  4C 2 0  35  55  00  00  00  00  127  145    0--.... 
  5C 2 0  45  65  00  00  00  00   91  159    0--.... 
  6C 2 0  55  75  00  00  00  00   55  145    0--.... 
  7C 3 0  65  00  00  00  00  00   19  159    0-..... 
  8C 2 0  15  95  00  00  00  00  271  145    0--.... 
  9BR0 0  85  00  00  00  00  00  307  159    0-..... 
37      10  BrC9H19              1                    
  1C 2 0  25  85  00  00  00  00  235  159    0--.... 
  2C 2 0  15  35  00  00  00  00  199  145    0--.... 
  3C 2 0  25  45  00  00  00  00  163  159    0--.... 
  4C 2 0  35  55  00  00  00  00  127  145    0--.... 
  5C 2 0  45  65  00  00  00  00   91  159    0--.... 
  6C 2 0  55  75  00  00  00  00   55  145    0--.... 
  7C 3 0  65  00  00  00  00  00   19  159    0-..... 
  8C 2 0  15 105  00  00  00  00  271  145    0--.... 
  9BR0 0 105  00  00  00  00  00  343  145    0-..... 
 10C 2 0  85  95  00  00  00  00  307  159    0--.... 
38      11  BrC10H21             1                    
  1C 2 0  25  85  00  00  00  00  235  159    0--.... 
  2C 2 0  15  35  00  00  00  00  199  145    0--.... 
  3C 2 0  25  45  00  00  00  00  163  159    0--.... 
  4C 2 0  35  55  00  00  00  00  127  145    0--.... 
  5C 2 0  45  65  00  00  00  00   91  159    0--.... 
  6C 2 0  55  75  00  00  00  00   55  145    0--.... 
  7C 3 0  65  00  00  00  00  00   19  159    0-..... 
  8C 2 0  15  95  00  00  00  00  271  145    0--.... 
  9C 2 0  85 105  00  00  00  00  307  159    0--.... 
 10C 2 0  95 115  00  00  00  00  343  145    0--.... 
 11BR0 0 105  00  00  00  00  00  379  159    0-..... 
39      13  BrC12H25             1                    
  1C 2 0  25  85  00  00  00  00  235  159    0--.... 
  2C 2 0  15  35  00  00  00  00  199  145    0--.... 
  3C 2 0  25  45  00  00  00  00  163  159    0--.... 
  4C 2 0  35  55  00  00  00  00  127  145    0--.... 
  5C 2 0  45  65  00  00  00  00   91  159    0--.... 
  6C 2 0  55  75  00  00  00  00   55  145    0--.... 
  7C 3 0  65  00  00  00  00  00   19  159    0-..... 
  8C 2 0  15  95  00  00  00  00  271  145    0--.... 
  9C 2 0  85 105  00  00  00  00  307  159    0--.... 
 10C 2 0  95 115  00  00  00  00  343  145    0--.... 
 11C 2 0 105 125  00  00  00  00  379  159    0--.... 
 12C 2 0 115 135  00  00  00  00  415  145    0--.... 
 13BR0 0 125  00  00  00  00  00  451  159    0-..... 
40      17  BrC16H33             1                    
  1C 2 0  25  85  00  00  00  00  235  159    0--.... 
  2C 2 0  15  35  00  00  00  00  199  145    0--.... 
  3C 2 0  25  45  00  00  00  00  163  159    0--.... 
  4C 2 0  35  55  00  00  00  00  127  145    0--.... 
  5C 2 0  45  65  00  00  00  00   91  159    0--.... 
  6C 2 0  55  75  00  00  00  00   55  145    0--.... 
  7C 2 0  65 145  00  00  00  00   19  159    0--.... 
  8C 2 0  15  95  00  00  00  00  271  145    0--.... 
  9C 2 0  85 105  00  00  00  00  307  159    0--.... 
 10C 2 0  95 115  00  00  00  00  343  145    0--.... 
 11C 2 0 105 125  00  00  00  00  379  159    0--.... 
 12C 2 0 115 135  00  00  00  00  415  145    0--.... 
 13BR0 0 125  00  00  00  00  00  451  159    0-..... 
 14C 2 0  75 155  00  00  00  00   19  187    0--.... 
 15C 2 0 145 165  00  00  00  00   55  201    0--.... 
 16C 2 0 155 175  00  00  00  00   91  187    0--.... 
 17C 3 0 165  00  00  00  00  00  127  201    0-..... 
41      19  BrC18H37             1                    
  1C 2 0  25  85  00  00  00  00  235  159    0--.... 
  2C 2 0  15  35  00  00  00  00  199  145    0--.... 
  3C 2 0  25  45  00  00  00  00  163  159    0--.... 
  4C 2 0  35  55  00  00  00  00  127  145    0--.... 
  5C 2 0  45  65  00  00  00  00   91  159    0--.... 
  6C 2 0  55  75  00  00  00  00   55  145    0--.... 
  7C 2 0  65 145  00  00  00  00   19  159    0--.... 
  8C 2 0  15  95  00  00  00  00  271  145    0--.... 
  9C 2 0  85 105  00  00  00  00  307  159    0--.... 
 10C 2 0  95 115  00  00  00  00  343  145    0--.... 
 11C 2 0 105 125  00  00  00  00  379  159    0--.... 
 12C 2 0 115 135  00  00  00  00  415  145    0--.... 
 13BR0 0 125  00  00  00  00  00  451  159    0-..... 
 14C 2 0  75 155  00  00  00  00   19  187    0--.... 
 15C 2 0 145 165  00  00  00  00   55  201    0--.... 
 16C 2 0 155 175  00  00  00  00   91  187    0--.... 
 17C 2 0 165 185  00  00  00  00  127  201    0--.... 
 18C 2 0 175 195  00  00  00  00  163  187    0--.... 
 19C 3 0 185  00  00  00  00  00  199  201    0-..... 
42       4  CF3H                 1                    
  1C 1 0  25  35  45  00  00  00  227  142    0---... 
  2F 0 0  15  00  00  00  00  00  248  118    0-..... 
  3F 0 0  15  00  00  00  00  00  269  142    0-..... 
  4F 0 0  15  00  00  00  00  00  248  166    0-..... 
43       5  CF4                  1                    
  1C 0 0  25  35  45  55  00  00  227  142    0----.. 
  2F 0 0  15  00  00  00  00  00  248  118    0-..... 
  3F 0 0  15  00  00  00  00  00  269  142    0-..... 
  4F 0 0  15  00  00  00  00  00  248  166    0-..... 
  5F 0 0  15  00  00  00  00  00  185  142    0-..... 
44       3  Br2CH2               1                    
  1C 2 0  25  35  00  00  00  00  227  142    0--.... 
  2BR0 0  15  00  00  00  00  00  248  118    0-..... 
  3BR0 0  15  00  00  00  00  00  248  166    0-..... 
45       4  Br3CH                1                    
  1C 1 0  25  35  45  00  00  00  227  142    0---... 
  2BR0 0  15  00  00  00  00  00  248  118    0-..... 
  3BR0 0  15  00  00  00  00  00  248  166    0-..... 
  4BR0 0  15  00  00  00  00  00  185  142    0-..... 
46       2  CH3I                 1                    
  1C 3 0  25  00  00  00  00  00  227  142    0-..... 
  2I 0 0  15  00  00  00  00  00  269  142    0-..... 
47       3  CH2I2                1                    
  1C 2 0  25  35  00  00  00  00  227  142    0--.... 
  2I 0 0  15  00  00  00  00  00  248  118    0-..... 
  3I 0 0  15  00  00  00  00  00  248  166    0-..... 
48       4  CHI3                 1                    
  1C 1 0  25  35  45  00  00  00  227  142    0---... 
  2I 0 0  15  00  00  00  00  00  248  118    0-..... 
  3I 0 0  15  00  00  00  00  00  248  166    0-..... 
  4I 0 0  15  00  00  00  00  00  185  142    0-..... 
49       2  CClH3                1                    
  1C 3 0  25  00  00  00  00  00  227  142    0-..... 
  2CL0 0  15  00  00  00  00  00  269  142    0-..... 
50       3  CCl2H2               1                    
  1C 2 0  25  35  00  00  00  00  227  142    0--.... 
  2CL0 0  15  00  00  00  00  00  248  118    0-..... 
  3CL0 0  15  00  00  00  00  00  248  166    0-..... 
51       4  CCl3H                1                    
  1C 1 0  25  35  45  00  00  00  227  142    0---... 
  2CL0 0  15  00  00  00  00  00  248  118    0-..... 
  3CL0 0  15  00  00  00  00  00  248  166    0-..... 
  4CL0 0  15  00  00  00  00  00  185  142    0-..... 
52       5  CCl4                 1                    
  1C 0 0  25  35  45  55  00  00  227  142    0----.. 
  2CL0 0  15  00  00  00  00  00  248  118    0-..... 
  3CL0 0  15  00  00  00  00  00  248  166    0-..... 
  4CL0 0  15  00  00  00  00  00  185  142    0-..... 
  5CL0 0  15  00  00  00  00  00  269  142    0-..... 
53       3  C2ClH5               1                    
  1C 2 0  25  35  00  00  00  00  227  142    0--.... 
  2CL0 0  15  00  00  00  00  00  263  156    0-..... 
  3C 3 0  15  00  00  00  00  00  191  156    0-..... 
54       2  C2H4                 1                    
  1C 2 0  26  00  00  00  00  00  227  142    0-..... 
  2C 2 0  16  00  00  00  00  00  269  142    0-..... 
55       5  C5H10                1                    
  1C 2 0  25  45  00  00  00  00  227  142    0--.... 
  2C 2 0  15  35  00  00  00  00  263  156    0--.... 
  3C 3 0  25  00  00  00  00  00  299  142    0-..... 
  4C 1 0  15  56  00  00  00  00  191  156    0--.... 
  5C 2 0  46  00  00  00  00  00  155  142    0-..... 
56       5  C5H10                1                    
  1C 1 0  25  46  00  00  00  00  227  142    0--.... 
  2C 2 0  15  35  00  00  00  00  263  156    0--.... 
  3C 3 0  25  00  00  00  00  00  299  142    0-..... 
  4C 1 0  16  55  00  00  00  00  191  156    0--.... 
  5C 3 0  45  00  00  00  00  00  155  142    0-..... 
57       5  C5H8                 1                    
  1C 2 0  25  45  00  00  00  00  227  142    0--.... 
  2C 1 0  15  36  00  00  00  00  263  156    0--.... 
  3C 2 0  26  00  00  00  00  00  299  142    0-..... 
  4C 1 0  15  56  00  00  00  00  191  156    0--.... 
  5C 2 0  46  00  00  00  00  00  155  142    0-..... 
58       6  C6H12                1                    
  1C 2 0  25  45  00  00  00  00  227  142    0--.... 
  2C 2 0  15  35  00  00  00  00  263  156    0--.... 
  3C 2 0  25  65  00  00  00  00  299  142    0--.... 
  4C 1 0  15  56  00  00  00  00  191  156    0--.... 
  5C 2 0  46  00  00  00  00  00  155  142    0-..... 
  6C 3 0  35  00  00  00  00  00  335  156    0-..... 
59       7  C7H14                1                    
  1C 2 0  25  45  00  00  00  00  227  142    0--.... 
  2C 2 0  15  35  00  00  00  00  263  156    0--.... 
  3C 2 0  25  65  00  00  00  00  299  142    0--.... 
  4C 1 0  15  56  00  00  00  00  191  156    0--.... 
  5C 2 0  46  00  00  00  00  00  155  142    0-..... 
  6C 2 0  35  75  00  00  00  00  335  156    0--.... 
  7C 3 0  65  00  00  00  00  00  371  142    0-..... 
60       4  C2Cl2H2              1                    
  1C 2 0  26  00  00  00  00  00  191  156    0-..... 
  2C 0 0  16  35  45  00  00  00  233  156    0---... 
  3CL0 0  25  00  00  00  00  00  254  132    0-..... 
  4CL0 0  25  00  00  00  00  00  254  180    0-..... 
61       4  C2Cl2H2              1                    
  1C 1 0  26  45  00  00  00  00  191  156    0--.... 
  2C 1 0  16  35  00  00  00  00  233  156    0--.... 
  3CL0 0  25  00  00  00  00  00  254  180    0-..... 
  4CL0 0  15  00  00  00  00  00  170  132    0-..... 
62       4  C2Cl2H2              1                    
  1C 1 0  26  45  00  00  00  00  191  156    0--.... 
  2C 1 0  16  35  00  00  00  00  233  156    0--.... 
  3CL0 0  25  00  00  00  00  00  254  180    0-..... 
  4CL0 0  15  00  00  00  00  00  170  180    0-..... 
63       5  C2Cl3H               1                    
  1C 1 0  26  45  00  00  00  00  191  156    0--.... 
  2C 0 0  16  35  55  00  00  00  233  156    0---... 
  3CL0 0  25  00  00  00  00  00  254  180    0-..... 
  4CL0 0  15  00  00  00  00  00  170  180    0-..... 
  5CL0 0  25  00  00  00  00  00  254  132    0-..... 
64       4  BrC2ClH2             1                    
  1C 1 0  26  45  00  00  00  00  191  156    0--.... 
  2C 1 0  16  35  00  00  00  00  233  156    0--.... 
  3CL0 0  25  00  00  00  00  00  254  132    0-..... 
  4BR0 0  15  00  00  00  00  00  170  180    0-..... 
65       4  BrC2ClH2             1                    
  1C 1 0  26  35  00  00  00  00  191  156    0--.... 
  2C 1 0  16  45  00  00  00  00  233  156    0--.... 
  3BR0 0  15  00  00  00  00  00  170  180    0-..... 
  4CL0 0  25  00  00  00  00  00  254  180    0-..... 
66       2  C2H2                 1                    
  1C 1 0  27  00  00  00  00  00  191  156    0-..... 
  2C 1 0  17  00  00  00  00  00  233  156    0-..... 
67       7  C7H12                1                    
  1C 2 0  25  65  00  00  00  00  191  156    0--.... 
  2C 2 0  15  35  00  00  00  00  227  142    0--.... 
  3C 2 0  25  45  00  00  00  00  263  156    0--.... 
  4C 2 0  35  55  00  00  00  00  299  142    0--.... 
  5C 3 0  45  00  00  00  00  00  335  156    0-..... 
  6C 0 0  15  77  00  00  00  00  155  142    0--.... 
  7C 1 0  67  00  00  00  00  00  119  156    0-..... 
68       6  C6H6                 1                    
  1C 2 0  25  55  00  00  00  00  191  156    0--.... 
  2C 2 0  15  35  00  00  00  00  227  142    0--.... 
  3C 0 0  25  47  00  00  00  00  263  156    0--.... 
  4C 1 0  37  00  00  00  00  00  299  142    0-..... 
  5C 0 0  15  67  00  00  00  00  155  142    0--.... 
  6C 1 0  57  00  00  00  00  00  119  156    0-..... 
69       6  C6H6                 1                    
  1C 1 0  22  61  00  00  00  00  226  170    0--.... 
  2C 1 0  12  31  00  00  00  00  190  156    0--.... 
  3C 1 0  21  42  00  00  00  00  190  128    0--.... 
  4C 1 0  32  51  00  00  00  00  226  114    0--.... 
  5C 1 0  41  62  00  00  00  00  262  128    0--.... 
  6C 1 0  52  11  00  00  00  00  262  156    0--.... 
70       7  C7H8                 1                    
  1C 1 0  22  61  00  00  00  00  226  170    0--.... 
  2C 1 0  12  31  00  00  00  00  190  156    0--.... 
  3C 1 0  21  42  00  00  00  00  190  128    0--.... 
  4C 0 0  32  51  75  00  00  00  226  114    0---... 
  5C 1 0  41  62  00  00  00  00  262  128    0--.... 
  6C 1 0  11  52  00  00  00  00  262  156    0--.... 
  7C 3 0  45  00  00  00  00  00  226   86    0-..... 
71       9  C9H12                1                    
  1C 1 0  22  61  00  00  00  00  226  170    0--.... 
  2C 0 0  12  31  95  00  00  00  190  156    0---... 
  3C 1 0  21  42  00  00  00  00  190  128    0--.... 
  4C 0 0  32  51  75  00  00  00  226  114    0---... 
  5C 1 0  41  62  00  00  00  00  262  128    0--.... 
  6C 0 0  11  52  85  00  00  00  262  156    0---... 
  7C 3 0  45  00  00  00  00  00  226   86    0-..... 
  8C 3 0  65  00  00  00  00  00  298  170    0-..... 
  9C 3 0  25  00  00  00  00  00  154  170    0-..... 
72      10  C10H14               1                    
  1C 1 0  22  61  00  00  00  00  226  170    0--.... 
  2C 0 0  12  31  85  00  00  00  190  156    0---... 
  3C 0 0  21  42  95  00  00  00  190  128    0---... 
  4C 1 0  32  51  00  00  00  00  226  114    0--.... 
  5C 0 0  41  62 105  00  00  00  262  128    0---... 
  6C 0 0  11  52  75  00  00  00  262  156    0---... 
  7C 3 0  65  00  00  00  00  00  298  170    0-..... 
  8C 3 0  25  00  00  00  00  00  154  170    0-..... 
  9C 3 0  35  00  00  00  00  00  154  114    0-..... 
 10C 3 0  55  00  00  00  00  00  298  114    0-..... 
73      12  C12H18               1                    
  1C 0 0  22  61 125  00  00  00  226  170    0---... 
  2C 0 0  12  31  85  00  00  00  190  156    0---... 
  3C 0 0  21  42  95  00  00  00  190  128    0---... 
  4C 0 0  32  51 115  00  00  00  226  114    0---... 
  5C 0 0  41  62 105  00  00  00  262  128    0---... 
  6C 0 0  11  52  75  00  00  00  262  156    0---... 
  7C 3 0  65  00  00  00  00  00  298  170    0-..... 
  8C 3 0  25  00  00  00  00  00  154  170    0-..... 
  9C 3 0  35  00  00  00  00  00  154  114    0-..... 
 10C 3 0  55  00  00  00  00  00  298  114    0-..... 
 11C 3 0  45  00  00  00  00  00  226   86    0-..... 
 12C 3 0  15  00  00  00  00  00  226  198    0-..... 
74       7  C6FH5                1                    
  1C 1 0  22  61  00  00  00  00  226  170    0--.... 
  2C 1 0  12  31  00  00  00  00  190  156    0--.... 
  3C 1 0  21  42  00  00  00  00  190  128    0--.... 
  4C 0 0  32  51  75  00  00  00  226  114    0---... 
  5C 1 0  41  62  00  00  00  00  262  128    0--.... 
  6C 1 0  11  52  00  00  00  00  262  156    0--.... 
  7F 0 0  45  00  00  00  00  00  226   86    0-..... 
75       7  C6ClH5               1                    
  1C 1 0  22  61  00  00  00  00  226  170    0--.... 
  2C 1 0  12  31  00  00  00  00  190  156    0--.... 
  3C 1 0  21  42  00  00  00  00  190  128    0--.... 
  4C 0 0  32  51  75  00  00  00  226  114    0---... 
  5C 1 0  41  62  00  00  00  00  262  128    0--.... 
  6C 1 0  11  52  00  00  00  00  262  156    0--.... 
  7CL0 0  45  00  00  00  00  00  226   86    0-..... 
76       7  BrC6H5               1                    
  1C 1 0  22  61  00  00  00  00  226  170    0--.... 
  2C 1 0  12  31  00  00  00  00  190  156    0--.... 
  3C 1 0  21  42  00  00  00  00  190  128    0--.... 
  4C 0 0  32  51  75  00  00  00  226  114    0---... 
  5C 1 0  41  62  00  00  00  00  262  128    0--.... 
  6C 1 0  11  52  00  00  00  00  262  156    0--.... 
  7BR0 0  45  00  00  00  00  00  226   86    0-..... 
77       8  C6F2H4               1                    
  1C 1 0  22  61  00  00  00  00  226  170    0--.... 
  2C 1 0  12  31  00  00  00  00  190  156    0--.... 
  3C 1 0  21  42  00  00  00  00  190  128    0--.... 
  4C 0 0  32  51  75  00  00  00  226  114    0---... 
  5C 0 0  41  62  85  00  00  00  262  128    0---... 
  6C 1 0  11  52  00  00  00  00  262  156    0--.... 
  7F 0 0  45  00  00  00  00  00  226   86    0-..... 
  8F 0 0  55  00  00  00  00  00  298  114    0-..... 
78       8  C6Cl2H4              1                    
  1C 1 0  22  61  00  00  00  00  226  170    0--.... 
  2C 1 0  12  31  00  00  00  00  190  156    0--.... 
  3C 1 0  21  42  00  00  00  00  190  128    0--.... 
  4C 0 0  32  51  75  00  00  00  226  114    0---... 
  5C 0 0  41  62  85  00  00  00  262  128    0---... 
  6C 1 0  11  52  00  00  00  00  262  156    0--.... 
  7CL0 0  45  00  00  00  00  00  226   86    0-..... 
  8CL0 0  55  00  00  00  00  00  298  114    0-..... 
79       8  C6Cl2H4              1                    
  1C 1 0  22  61  00  00  00  00  226  170    0--.... 
  2C 1 0  12  31  00  00  00  00  190  156    0--.... 
  3C 1 0  21  42  00  00  00  00  190  128    0--.... 
  4C 0 0  32  51  75  00  00  00  226  114    0---... 
  5C 1 0  41  62  00  00  00  00  262  128    0--.... 
  6C 0 0  11  52  85  00  00  00  262  156    0---... 
  7CL0 0  45  00  00  00  00  00  226   86    0-..... 
  8CL0 0  65  00  00  00  00  00  298  170    0-..... 
80       8  C6Cl2H4              1                    
  1C 0 0  22  61  85  00  00  00  226  170    0---... 
  2C 1 0  12  31  00  00  00  00  190  156    0--.... 
  3C 1 0  21  42  00  00  00  00  190  128    0--.... 
  4C 0 0  32  51  75  00  00  00  226  114    0---... 
  5C 1 0  41  62  00  00  00  00  262  128    0--.... 
  6C 1 0  11  52  00  00  00  00  262  156    0--.... 
  7CL0 0  45  00  00  00  00  00  226   86    0-..... 
  8CL0 0  15  00  00  00  00  00  226  198    0-..... 
81       8  C6F2H4               1                    
  1C 0 0  22  61  85  00  00  00  226  170    0---... 
  2C 1 0  12  31  00  00  00  00  190  156    0--.... 
  3C 1 0  21  42  00  00  00  00  190  128    0--.... 
  4C 0 0  32  51  75  00  00  00  226  114    0---... 
  5C 1 0  41  62  00  00  00  00  262  128    0--.... 
  6C 1 0  11  52  00  00  00  00  262  156    0--.... 
  7F 0 0  45  00  00  00  00  00  226   86    0-..... 
  8F 0 0  15  00  00  00  00  00  226  198    0-..... 
82       9  C6F3H3               1                    
  1C 1 0  22  61  00  00  00  00  226  170    0--.... 
  2C 0 0  12  31  95  00  00  00  190  156    0---... 
  3C 1 0  21  42  00  00  00  00  190  128    0--.... 
  4C 0 0  32  51  75  00  00  00  226  114    0---... 
  5C 1 0  41  62  00  00  00  00  262  128    0--.... 
  6C 0 0  11  52  85  00  00  00  262  156    0---... 
  7F 0 0  45  00  00  00  00  00  226   86    0-..... 
  8F 0 0  65  00  00  00  00  00  298  170    0-..... 
  9F 0 0  25  00  00  00  00  00  154  170    0-..... 
83      10  C6F4H2               1                    
  1C 0 0  22  61 105  00  00  00  226  170    0---... 
  2C 1 0  12  31  00  00  00  00  190  156    0--.... 
  3C 1 0  21  42  00  00  00  00  190  128    0--.... 
  4C 0 0  32  51  75  00  00  00  226  114    0---... 
  5C 0 0  41  62  95  00  00  00  262  128    0---... 
  6C 0 0  11  52  85  00  00  00  262  156    0---... 
  7F 0 0  45  00  00  00  00  00  226   86    0-..... 
  8F 0 0  65  00  00  00  00  00  298  170    0-..... 
  9F 0 0  55  00  00  00  00  00  298  114    0-..... 
 10F 0 0  15  00  00  00  00  00  226  198    0-..... 
84      10  C6F4H2               1                    
  1C 1 0  22  61  00  00  00  00  226  170    0--.... 
  2C 0 0  12  31  95  00  00  00  190  156    0---... 
  3C 0 0  21  42 105  00  00  00  190  128    0---... 
  4C 1 0  32  51  00  00  00  00  226  114    0--.... 
  5C 0 0  41  62  85  00  00  00  262  128    0---... 
  6C 0 0  11  52  75  00  00  00  262  156    0---... 
  7F 0 0  65  00  00  00  00  00  298  170    0-..... 
  8F 0 0  55  00  00  00  00  00  298  114    0-..... 
  9F 0 0  25  00  00  00  00  00  154  170    0-..... 
 10F 0 0  35  00  00  00  00  00  154  114    0-..... 
85      11  C6F5H                1                    
  1C 1 0  22  61  00  00  00  00  226  170    0--.... 
  2C 0 0  12  31  95  00  00  00  190  156    0---... 
  3C 0 0  21  42 105  00  00  00  190  128    0---... 
  4C 0 0  32  51 115  00  00  00  226  114    0---... 
  5C 0 0  41  62  85  00  00  00  262  128    0---... 
  6C 0 0  11  52  75  00  00  00  262  156    0---... 
  7F 0 0  65  00  00  00  00  00  298  170    0-..... 
  8F 0 0  55  00  00  00  00  00  298  114    0-..... 
  9F 0 0  25  00  00  00  00  00  154  170    0-..... 
 10F 0 0  35  00  00  00  00  00  154  114    0-..... 
 11F 0 0  45  00  00  00  00  00  226   86    0-..... 
86      12  C6F6                 1                    
  1C 0 0  22  61 125  00  00  00  226  170    0---... 
  2C 0 0  12  31  95  00  00  00  190  156    0---... 
  3C 0 0  21  42 105  00  00  00  190  128    0---... 
  4C 0 0  32  51 115  00  00  00  226  114    0---... 
  5C 0 0  41  62  85  00  00  00  262  128    0---... 
  6C 0 0  11  52  75  00  00  00  262  156    0---... 
  7F 0 0  65  00  00  00  00  00  298  170    0-..... 
  8F 0 0  55  00  00  00  00  00  298  114    0-..... 
  9F 0 0  25  00  00  00  00  00  154  170    0-..... 
 10F 0 0  35  00  00  00  00  00  154  114    0-..... 
 11F 0 0  45  00  00  00  00  00  226   86    0-..... 
 12F 0 0  15  00  00  00  00  00  226  198    0-..... 
87       8  C7FH7                1                    
  1C 0 0  22  61  75  00  00  00  226  170    0---... 
  2C 1 0  12  31  00  00  00  00  190  156    0--.... 
  3C 1 0  21  42  00  00  00  00  190  128    0--.... 
  4C 0 0  32  51  85  00  00  00  226  114    0---... 
  5C 1 0  41  62  00  00  00  00  262  128    0--.... 
  6C 1 0  11  52  00  00  00  00  262  156    0--.... 
  7F 0 0  15  00  00  00  00  00  226  198    0-..... 
  8C 3 0  45  00  00  00  00  00  226   86    0-..... 
88       8  C7ClH7               1                    
  1C 0 0  22  61  75  00  00  00  226  170    0---... 
  2C 1 0  12  31  00  00  00  00  190  156    0--.... 
  3C 1 0  21  42  00  00  00  00  190  128    0--.... 
  4C 0 0  32  51  85  00  00  00  226  114    0---... 
  5C 1 0  41  62  00  00  00  00  262  128    0--.... 
  6C 1 0  11  52  00  00  00  00  262  156    0--.... 
  7CL0 0  15  00  00  00  00  00  226  198    0-..... 
  8C 3 0  45  00  00  00  00  00  226   86    0-..... 
89       8  BrC7H7               1                    
  1C 0 0  22  61  75  00  00  00  226  170    0---... 
  2C 1 0  12  31  00  00  00  00  190  156    0--.... 
  3C 1 0  21  42  00  00  00  00  190  128    0--.... 
  4C 0 0  32  51  85  00  00  00  226  114    0---... 
  5C 1 0  41  62  00  00  00  00  262  128    0--.... 
  6C 1 0  11  52  00  00  00  00  262  156    0--.... 
  7BR0 0  15  00  00  00  00  00  226  198    0-..... 
  8C 3 0  45  00  00  00  00  00  226   86    0-..... 
90       8  C7H7I                1                    
  1C 0 0  22  61  75  00  00  00  226  170    0---... 
  2C 1 0  12  31  00  00  00  00  190  156    0--.... 
  3C 1 0  21  42  00  00  00  00  190  128    0--.... 
  4C 0 0  32  51  85  00  00  00  226  114    0---... 
  5C 1 0  41  62  00  00  00  00  262  128    0--.... 
  6C 1 0  11  52  00  00  00  00  262  156    0--.... 
  7I 0 0  15  00  00  00  00  00  226  198    0-..... 
  8C 3 0  45  00  00  00  00  00  226   86    0-..... 
91       8  C8H10                1                    
  1C 1 0  22  61  00  00  00  00  226  170    0--.... 
  2C 1 0  12  31  00  00  00  00  190  156    0--.... 
  3C 1 0  21  42  00  00  00  00  190  128    0--.... 
  4C 0 0  32  51  75  00  00  00  226  114    0---... 
  5C 0 0  41  62  85  00  00  00  262  128    0---... 
  6C 1 0  11  52  00  00  00  00  262  156    0--.... 
  7C 3 0  45  00  00  00  00  00  226   86    0-..... 
  8C 3 0  55  00  00  00  00  00  298  114    0-..... 
92       8  C8H10                1                    
  1C 1 0  22  61  00  00  00  00  226  170    0--.... 
  2C 1 0  12  31  00  00  00  00  190  156    0--.... 
  3C 1 0  21  42  00  00  00  00  190  128    0--.... 
  4C 0 0  32  51  75  00  00  00  226  114    0---... 
  5C 1 0  41  62  00  00  00  00  262  128    0--.... 
  6C 0 0  11  52  85  00  00  00  262  156    0---... 
  7C 3 0  45  00  00  00  00  00  226   86    0-..... 
  8C 3 0  65  00  00  00  00  00  298  170    0-..... 
93       8  C8H10                1                    
  1C 0 0  22  61  85  00  00  00  226  170    0---... 
  2C 1 0  12  31  00  00  00  00  190  156    0--.... 
  3C 1 0  21  42  00  00  00  00  190  128    0--.... 
  4C 0 0  32  51  75  00  00  00  226  114    0---... 
  5C 1 0  41  62  00  00  00  00  262  128    0--.... 
  6C 1 0  11  52  00  00  00  00  262  156    0--.... 
  7C 3 0  45  00  00  00  00  00  226   86    0-..... 
  8C 3 0  15  00  00  00  00  00  226  198    0-..... 
94      10  C10H8                1                    
  1C 1 0  22  61  00  00  00  00  226  170    0--.... 
  2C 1 0  12  31  00  00  00  00  190  156    0--.... 
  3C 1 0  21  42  00  00  00  00  190  128    0--.... 
  4C 1 0  32  51  00  00  00  00  226  114    0--.... 
  5C 0 0  41  62  71  00  00  00  262  128    0---... 
  6C 0 0  11  52 101  00  00  00  262  156    0---... 
  7C 1 0  51  82  00  00  00  00  298  114    0--.... 
  8C 1 0  72  91  00  00  00  00  334  128    0--.... 
  9C 1 0  81 102  00  00  00  00  334  156    0--.... 
 10C 1 0  92  61  00  00  00  00  298  170    0--.... 
95      14  C14H10               1                    
  1C 1 0  22  61  00  00  00  00  226  170    0--.... 
  2C 0 0  12  31 141  00  00  00  190  156    0---... 
  3C 0 0  21  42 111  00  00  00  190  128    0---... 
  4C 1 0  32  51  00  00  00  00  226  114    0--.... 
  5C 0 0  41  62  71  00  00  00  262  128    0---... 
  6C 0 0  11  52 101  00  00  00  262  156    0---... 
  7C 1 0  51  82  00  00  00  00  298  114    0--.... 
  8C 1 0  72  91  00  00  00  00  334  128    0--.... 
  9C 1 0  81 102  00  00  00  00  334  156    0--.... 
 10C 1 0  61  92  00  00  00  00  298  170    0--.... 
 11C 1 0  31 122  00  00  00  00  154  114    0--.... 
 12C 1 0 112 131  00  00  00  00  118  128    0--.... 
 13C 1 0 121 142  00  00  00  00  118  156    0--.... 
 14C 1 0 132  21  00  00  00  00  154  170    0--.... 
96      14  C14H10               1                    
  1C 1 0  22  61  00  00  00  00  226  170    0--.... 
  2C 0 0  12  31 111  00  00  00  190  156    0---... 
  3C 0 0  21  42  81  00  00  00  190  128    0---... 
  4C 0 0  32  51 121  00  00  00  226  114    0---... 
  5C 0 0  41  62  71  00  00  00  262  128    0---... 
  6C 1 0  11  52  00  00  00  00  262  156    0--.... 
  7C 1 0  51 142  00  00  00  00  298  114    0--.... 
  8C 1 0  31  92  00  00  00  00  154  114    0--.... 
  9C 1 0  82 101  00  00  00  00  118  128    0--.... 
 10C 1 0  91 112  00  00  00  00  118  156    0--.... 
 11C 1 0  21 102  00  00  00  00  154  170    0--.... 
 12C 1 0  41 132  00  00  00  00  226   86    0--.... 
 13C 1 0 122 141  00  00  00  00  262   72    0--.... 
 14C 1 0 131  72  00  00  00  00  298   86    0--.... 
97      11  C11H10               1                    
  1C 1 0  22  61  00  00  00  00  226  170    0--.... 
  2C 1 0  12  31  00  00  00  00  190  156    0--.... 
  3C 1 0  21  42  00  00  00  00  190  128    0--.... 
  4C 0 0  32  51  85  00  00  00  226  114    0---... 
  5C 0 0  41  62  71  00  00  00  262  128    0---... 
  6C 0 0  11  52 111  00  00  00  262  156    0---... 
  7C 1 0  51  92  00  00  00  00  298  114    0--.... 
  8C 3 0  45  00  00  00  00  00  226   86    0-..... 
  9C 1 0  72 101  00  00  00  00  334  128    0--.... 
 10C 1 0  91 112  00  00  00  00  334  156    0--.... 
 11C 1 0 102  61  00  00  00  00  298  170    0--.... 
98      11  C11H10               1                    
  1C 1 0  22  61  00  00  00  00  226  170    0--.... 
  2C 1 0  12  31  00  00  00  00  190  156    0--.... 
  3C 0 0  21  42 115  00  00  00  190  128    0---... 
  4C 1 0  32  51  00  00  00  00  226  114    0--.... 
  5C 0 0  41  62  71  00  00  00  262  128    0---... 
  6C 0 0  11  52 101  00  00  00  262  156    0---... 
  7C 1 0  51  82  00  00  00  00  298  114    0--.... 
  8C 1 0  72  91  00  00  00  00  334  128    0--.... 
  9C 1 0  81 102  00  00  00  00  334  156    0--.... 
 10C 1 0  61  92  00  00  00  00  298  170    0--.... 
 11C 3 0  35  00  00  00  00  00  154  114    0-..... 
99      12  C12H12               1                    
  1C 1 0  22  61  00  00  00  00  226  170    0--.... 
  2C 1 0  12  31  00  00  00  00  190  156    0--.... 
  3C 1 0  21  42  00  00  00  00  190  128    0--.... 
  4C 0 0  32  51 115  00  00  00  226  114    0---... 
  5C 0 0  41  62  71  00  00  00  262  128    0---... 
  6C 0 0  11  52 101  00  00  00  262  156    0---... 
  7C 1 0  51  82  00  00  00  00  298  114    0--.... 
  8C 1 0  72  91  00  00  00  00  334  128    0--.... 
  9C 1 0  81 102  00  00  00  00  334  156    0--.... 
 10C 1 0  61  92  00  00  00  00  298  170    0--.... 
 11C 2 0  45 125  00  00  00  00  226   86    0--.... 
 12C 3 0 115  00  00  00  00  00  190   72    0-..... 
100     12  C12H12               1                    
  1C 1 0  22  61  00  00  00  00  226  170    0--.... 
  2C 1 0  12  31  00  00  00  00  190  156    0--.... 
  3C 0 0  21  42 115  00  00  00  190  128    0---... 
  4C 1 0  32  51  00  00  00  00  226  114    0--.... 
  5C 0 0  41  62  71  00  00  00  262  128    0---... 
  6C 0 0  11  52 101  00  00  00  262  156    0---... 
  7C 1 0  51  82  00  00  00  00  298  114    0--.... 
  8C 1 0  72  91  00  00  00  00  334  128    0--.... 
  9C 1 0  81 102  00  00  00  00  334  156    0--.... 
 10C 1 0  61  92  00  00  00  00  298  170    0--.... 
 11C 2 0  35 125  00  00  00  00  154  114    0--.... 
 12C 3 0 115  00  00  00  00  00  118  128    0-..... 
101     11  C10ClH7              1                    
  1C 1 0  22  61  00  00  00  00  226  170    0--.... 
  2C 1 0  12  31  00  00  00  00  190  156    0--.... 
  3C 1 0  21  42  00  00  00  00  190  128    0--.... 
  4C 0 0  32  51 115  00  00  00  226  114    0---... 
  5C 0 0  41  62  71  00  00  00  262  128    0---... 
  6C 0 0  11  52 101  00  00  00  262  156    0---... 
  7C 1 0  51  82  00  00  00  00  298  114    0--.... 
  8C 1 0  72  91  00  00  00  00  334  128    0--.... 
  9C 1 0  81 102  00  00  00  00  334  156    0--.... 
 10C 1 0  61  92  00  00  00  00  298  170    0--.... 
 11CL0 0  45  00  00  00  00  00  226   86    0-..... 
102     11  C10ClH7              1                    
  1C 1 0  22  61  00  00  00  00  226  170    0--.... 
  2C 1 0  12  31  00  00  00  00  190  156    0--.... 
  3C 0 0  21  42 115  00  00  00  190  128    0---... 
  4C 1 0  32  51  00  00  00  00  226  114    0--.... 
  5C 0 0  41  62  71  00  00  00  262  128    0---... 
  6C 0 0  11  52 101  00  00  00  262  156    0---... 
  7C 1 0  51  82  00  00  00  00  298  114    0--.... 
  8C 1 0  72  91  00  00  00  00  334  128    0--.... 
  9C 1 0  81 102  00  00  00  00  334  156    0--.... 
 10C 1 0  61  92  00  00  00  00  298  170    0--.... 
 11CL0 0  35  00  00  00  00  00  154  114    0-..... 
103     11  BrC10H7              1                    
  1C 1 0  22  61  00  00  00  00  226  170    0--.... 
  2C 1 0  12  31  00  00  00  00  190  156    0--.... 
  3C 1 0  21  42  00  00  00  00  190  128    0--.... 
  4C 0 0  32  51 115  00  00  00  226  114    0---... 
  5C 0 0  41  62  71  00  00  00  262  128    0---... 
  6C 0 0  11  52 101  00  00  00  262  156    0---... 
  7C 1 0  51  82  00  00  00  00  298  114    0--.... 
  8C 1 0  72  91  00  00  00  00  334  128    0--.... 
  9C 1 0  81 102  00  00  00  00  334  156    0--.... 
 10C 1 0  61  92  00  00  00  00  298  170    0--.... 
 11BR0 0  45  00  00  00  00  00  226   86    0-..... 
104     11  C10H7I               1                    
  1C 1 0  22  61  00  00  00  00  226  170    0--.... 
  2C 1 0  12  31  00  00  00  00  190  156    0--.... 
  3C 0 0  21  42 115  00  00  00  190  128    0---... 
  4C 1 0  32  51  00  00  00  00  226  114    0--.... 
  5C 0 0  41  62  71  00  00  00  262  128    0---... 
  6C 0 0  11  52 101  00  00  00  262  156    0---... 
  7C 1 0  51  82  00  00  00  00  298  114    0--.... 
  8C 1 0  72  91  00  00  00  00  334  128    0--.... 
  9C 1 0  81 102  00  00  00  00  334  156    0--.... 
 10C 1 0  61  92  00  00  00  00  298  170    0--.... 
 11I 0 0  35  00  00  00  00  00  154  114    0-..... 
105     11  C10H7I               1                    
  1C 1 0  22  61  00  00  00  00  226  170    0--.... 
  2C 1 0  12  31  00  00  00  00  190  156    0--.... 
  3C 1 0  21  42  00  00  00  00  190  128    0--.... 
  4C 0 0  32  51 115  00  00  00  226  114    0---... 
  5C 0 0  41  62  71  00  00  00  262  128    0---... 
  6C 0 0  11  52 101  00  00  00  262  156    0---... 
  7C 1 0  51  82  00  00  00  00  298  114    0--.... 
  8C 1 0  72  91  00  00  00  00  334  128    0--.... 
  9C 1 0  81 102  00  00  00  00  334  156    0--.... 
 10C 1 0  61  92  00  00  00  00  298  170    0--.... 
 11I 0 0  45  00  00  00  00  00  226   86    0-..... 
106     18  C10F8                1                    
  1C 0 0  22  61 145  00  00  00  226  170    0---... 
  2C 0 0  12  31 135  00  00  00  190  156    0---... 
  3C 0 0  21  42 125  00  00  00  190  128    0---... 
  4C 0 0  32  51 115  00  00  00  226  114    0---... 
  5C 0 0  41  62  71  00  00  00  262  128    0---... 
  6C 0 0  11  52 101  00  00  00  262  156    0---... 
  7C 0 0  51  82 185  00  00  00  298  114    0---... 
  8C 0 0  72  91 175  00  00  00  334  128    0---... 
  9C 0 0  81 102 165  00  00  00  334  156    0---... 
 10C 0 0  61  92 155  00  00  00  298  170    0---... 
 11F 0 0  45  00  00  00  00  00  226   86    0-..... 
 12F 0 0  35  00  00  00  00  00  154  114    0-..... 
 13F 0 0  25  00  00  00  00  00  154  170    0-..... 
 14F 0 0  15  00  00  00  00  00  226  198    0-..... 
 15F 0 0 105  00  00  00  00  00  298  198    0-..... 
 16F 0 0  95  00  00  00  00  00  370  170    0-..... 
 17F 0 0  85  00  00  00  00  00  370  114    0-..... 
 18F 0 0  75  00  00  00  00  00  298   86    0-..... 
107     12  C11H8O               1                    
  1C 1 0  22  61  00  00  00  00  226  170    0--.... 
  2C 1 0  12  31  00  00  00  00  190  156    0--.... 
  3C 1 0  21  42  00  00  00  00  190  128    0--.... 
  4C 1 0  32  51  00  00  00  00  226  114    0--.... 
  5C 0 0  41  62  71  00  00  00  262  128    0---... 
  6C 0 0  11  52 101  00  00  00  262  156    0---... 
  7C 0 0  51  82 115  00  00  00  298  114    0---... 
  8C 1 0  72  91  00  00  00  00  334  128    0--.... 
  9C 1 0  81 102  00  00  00  00  334  156    0--.... 
 10C 1 0  61  92  00  00  00  00  298  170    0--.... 
 11C 1 0  75 126  00  00  00  00  298   86    0--.... 
 12O 0 0 116  00  00  00  00  00  334   72    0-..... 
108     12  C11H8O               1                    
  1C 1 0  22  61  00  00  00  00  226  170    0--.... 
  2C 1 0  12  31  00  00  00  00  190  156    0--.... 
  3C 1 0  21  42  00  00  00  00  190  128    0--.... 
  4C 1 0  32  51  00  00  00  00  226  114    0--.... 
  5C 0 0  41  62  71  00  00  00  262  128    0---... 
  6C 0 0  11  52 101  00  00  00  262  156    0---... 
  7C 1 0  51  82  00  00  00  00  298  114    0--.... 
  8C 0 0  72  91 115  00  00  00  334  128    0---... 
  9C 1 0  81 102  00  00  00  00  334  156    0--.... 
 10C 1 0  61  92  00  00  00  00  298  170    0--.... 
 11C 1 0  85 126  00  00  00  00  370  114    0--.... 
 12O 0 0 116  00  00  00  00  00  370   86    0-..... 
109     11  C10H9N               1                    
  1C 1 0  22  61  00  00  00  00  226  170    0--.... 
  2C 1 0  12  31  00  00  00  00  190  156    0--.... 
  3C 1 0  21  42  00  00  00  00  190  128    0--.... 
  4C 1 0  32  51  00  00  00  00  226  114    0--.... 
  5C 0 0  41  62  71  00  00  00  262  128    0---... 
  6C 0 0  11  52 101  00  00  00  262  156    0---... 
  7C 0 0  51  82 115  00  00  00  298  114    0---... 
  8C 1 0  72  91  00  00  00  00  334  128    0--.... 
  9C 1 0  81 102  00  00  00  00  334  156    0--.... 
 10C 1 0  61  92  00  00  00  00  298  170    0--.... 
 11N 2 0  75  00  00  00  00  00  298   86    0-..... 
110     11  C10H9N               1                    
  1C 1 0  22  61  00  00  00  00  226  170    0--.... 
  2C 1 0  12  31  00  00  00  00  190  156    0--.... 
  3C 1 0  21  42  00  00  00  00  190  128    0--.... 
  4C 1 0  32  51  00  00  00  00  226  114    0--.... 
  5C 0 0  41  62  71  00  00  00  262  128    0---... 
  6C 0 0  11  52 101  00  00  00  262  156    0---... 
  7C 1 0  51  82  00  00  00  00  298  114    0--.... 
  8C 0 0  72  91 115  00  00  00  334  128    0---... 
  9C 1 0  81 102  00  00  00  00  334  156    0--.... 
 10C 1 0  61  92  00  00  00  00  298  170    0--.... 
 11N 2 0  85  00  00  00  00  00  370  114    0-..... 
111      8  C8H8                 1                    
  1C 1 0  22  61  00  00  00  00  226  170    0--.... 
  2C 1 0  12  31  00  00  00  00  190  156    0--.... 
  3C 1 0  21  42  00  00  00  00  190  128    0--.... 
  4C 1 0  32  51  00  00  00  00  226  114    0--.... 
  5C 0 0  41  62  75  00  00  00  262  128    0---... 
  6C 1 0  11  52  00  00  00  00  262  156    0--.... 
  7C 1 0  55  86  00  00  00  00  298  114    0--.... 
  8C 2 0  76  00  00  00  00  00  334  128    0-..... 
112      9  C9H10                1                    
  1C 1 0  22  61  00  00  00  00  226  170    0--.... 
  2C 1 0  12  31  00  00  00  00  190  156    0--.... 
  3C 1 0  21  42  00  00  00  00  190  128    0--.... 
  4C 1 0  32  51  00  00  00  00  226  114    0--.... 
  5C 0 0  41  62  75  00  00  00  262  128    0---... 
  6C 1 0  11  52  00  00  00  00  262  156    0--.... 
  7C 0 0  55  86  95  00  00  00  298  114    0---... 
  8C 2 0  76  00  00  00  00  00  334  128    0-..... 
  9C 3 0  75  00  00  00  00  00  298   86    0-..... 
113     11  C11H14               1                    
  1C 1 0  22  61  00  00  00  00  226  170    0--.... 
  2C 1 0  12  31  00  00  00  00  190  156    0--.... 
  3C 1 0  21  42  00  00  00  00  190  128    0--.... 
  4C 1 0  32  51  00  00  00  00  226  114    0--.... 
  5C 0 0  41  62  75  00  00  00  262  128    0---... 
  6C 1 0  11  52  00  00  00  00  262  156    0--.... 
  7C 0 0  55  86  95  00  00  00  298  114    0---... 
  8C 0 0  76 105 115  00  00  00  334  128    0---... 
  9C 3 0  75  00  00  00  00  00  298   86    0-..... 
 10C 3 0  85  00  00  00  00  00  370  114    0-..... 
 11C 3 0  85  00  00  00  00  00  334  156    0-..... 
114     15  C14ClH9              1                    
  1C 1 0  22  61  00  00  00  00  226  170    0--.... 
  2C 0 0  12  31 141  00  00  00  190  156    0---... 
  3C 0 0  21  42 111  00  00  00  190  128    0---... 
  4C 0 0  32  51 155  00  00  00  226  114    0---... 
  5C 0 0  41  62  71  00  00  00  262  128    0---... 
  6C 0 0  11  52 101  00  00  00  262  156    0---... 
  7C 1 0  51  82  00  00  00  00  298  114    0--.... 
  8C 1 0  72  91  00  00  00  00  334  128    0--.... 
  9C 1 0  81 102  00  00  00  00  334  156    0--.... 
 10C 1 0  92  61  00  00  00  00  298  170    0--.... 
 11C 1 0  31 122  00  00  00  00  154  114    0--.... 
 12C 1 0 112 131  00  00  00  00  118  128    0--.... 
 13C 1 0 121 142  00  00  00  00  118  156    0--.... 
 14C 1 0 132  21  00  00  00  00  154  170    0--.... 
 15CL0 0  45  00  00  00  00  00  226   86    0-..... 
115     15  BrC14H9              1                    
  1C 1 0  22  61  00  00  00  00  226  170    0--.... 
  2C 0 0  12  31 141  00  00  00  190  156    0---... 
  3C 0 0  21  42 111  00  00  00  190  128    0---... 
  4C 0 0  32  51 155  00  00  00  226  114    0---... 
  5C 0 0  41  62  71  00  00  00  262  128    0---... 
  6C 0 0  11  52 101  00  00  00  262  156    0---... 
  7C 1 0  51  82  00  00  00  00  298  114    0--.... 
  8C 1 0  72  91  00  00  00  00  334  128    0--.... 
  9C 1 0  81 102  00  00  00  00  334  156    0--.... 
 10C 1 0  61  92  00  00  00  00  298  170    0--.... 
 11C 1 0  31 122  00  00  00  00  154  114    0--.... 
 12C 1 0 112 131  00  00  00  00  118  128    0--.... 
 13C 1 0 121 142  00  00  00  00  118  156    0--.... 
 14C 1 0  21 132  00  00  00  00  154  170    0--.... 
 15BR0 0  45  00  00  00  00  00  226   86    0-..... 
116      3  C2H7N                1                    
  1C 3 0  25  00  00  00  00  00  173  147    0-..... 
  2N 1 0  15  35  00  00  00  00  209  133    0--.... 
  3C 3 0  25  00  00  00  00  00  245  147    0-..... 
117      4  C3H9N                1                    
  1C 2 0  35  45  00  00  00  00  245  147    0--.... 
  2C 3 0  35  00  00  00  00  00  170  140    0-..... 
  3C 2 0  25  15  00  00  00  00  206  126    0--.... 
  4N 2 0  15  00  00  00  00  00  281  133    0-..... 
118      4  C3H9N                1                    
  1C 3 0  25  00  00  00  00  00  170  140    0-..... 
  2C 1 0  15  35  45  00  00  00  206  126    0---... 
  3N 2 0  25  00  00  00  00  00  206   98    0-..... 
  4C 3 0  25  00  00  00  00  00  242  140    0-..... 
119      5  C4H11N               1                    
  1C 3 0  25  00  00  00  00  00  170  140    0-..... 
  2C 2 0  15  35  00  00  00  00  206  126    0--.... 
  3N 1 0  25  45  00  00  00  00  242  140    0--.... 
  4C 2 0  35  55  00  00  00  00  278  126    0--.... 
  5C 3 0  45  00  00  00  00  00  314  140    0-..... 
120      7  C6H15N               1                    
  1C 2 0  25  75  00  00  00  00  170  140    0--.... 
  2C 2 0  15  35  00  00  00  00  206  126    0--.... 
  3N 1 0  25  45  00  00  00  00  242  140    0--.... 
  4C 2 0  35  55  00  00  00  00  278  126    0--.... 
  5C 2 0  45  65  00  00  00  00  314  140    0--.... 
  6C 3 0  55  00  00  00  00  00  350  126    0-..... 
  7C 3 0  15  00  00  00  00  00  134  126    0-..... 
121      7  C6H15N               1                    
  1C 3 0  25  00  00  00  00  00  170  140    0-..... 
  2C 2 0  15  35  00  00  00  00  206  126    0--.... 
  3N 0 0  25  45  65  00  00  00  242  140    0---... 
  4C 2 0  35  55  00  00  00  00  278  126    0--.... 
  5C 3 0  45  00  00  00  00  00  314  140    0-..... 
  6C 2 0  35  75  00  00  00  00  242  168    0--.... 
  7C 3 0  65  00  00  00  00  00  278  182    0-..... 
122     10  C9H21N               1                    
  1C 2 0  25  85  00  00  00  00  170  140    0--.... 
  2C 2 0  15  35  00  00  00  00  206  126    0--.... 
  3N 0 0  25  45  65  00  00  00  242  140    0---... 
  4C 2 0  35  55  00  00  00  00  278  126    0--.... 
  5C 2 0  45  95  00  00  00  00  314  140    0--.... 
  6C 2 0  35  75  00  00  00  00  242  168    0--.... 
  7C 2 0  65 105  00  00  00  00  278  182    0--.... 
  8C 3 0  15  00  00  00  00  00  134  126    0-..... 
  9C 3 0  55  00  00  00  00  00  350  126    0-..... 
 10C 3 0  75  00  00  00  00  00  278  210    0-..... 
123      7  C6H7N                1                    
  1C 1 0  22  61  00  00  00  00  226  171    0--.... 
  2C 1 0  12  31  00  00  00  00  190  157    0--.... 
  3C 1 0  21  42  00  00  00  00  190  129    0--.... 
  4C 0 0  32  51  75  00  00  00  226  115    0---... 
  5C 1 0  41  62  00  00  00  00  262  129    0--.... 
  6C 1 0  52  11  00  00  00  00  262  157    0--.... 
  7N 2 0  45  00  00  00  00  00  226   87    0-..... 
124      8  C7H9N                1                    
  1C 1 0  22  61  00  00  00  00  226  171    0--.... 
  2C 1 0  12  31  00  00  00  00  190  157    0--.... 
  3C 1 0  21  42  00  00  00  00  190  129    0--.... 
  4C 0 0  32  51  75  00  00  00  226  115    0---... 
  5C 1 0  41  62  00  00  00  00  262  129    0--.... 
  6C 1 0  11  52  00  00  00  00  262  157    0--.... 
  7N 1 0  45  85  00  00  00  00  226   87    0--.... 
  8C 3 0  75  00  00  00  00  00  262   73    0-..... 
125      9  C8H11N               1                    
  1C 1 0  22  61  00  00  00  00  226  171    0--.... 
  2C 1 0  12  31  00  00  00  00  190  157    0--.... 
  3C 1 0  21  42  00  00  00  00  190  129    0--.... 
  4C 0 0  32  51  75  00  00  00  226  115    0---... 
  5C 1 0  41  62  00  00  00  00  262  129    0--.... 
  6C 1 0  11  52  00  00  00  00  262  157    0--.... 
  7N 1 0  45  85  00  00  00  00  226   87    0--.... 
  8C 2 0  75  95  00  00  00  00  262   73    0--.... 
  9C 3 0  85  00  00  00  00  00  298   87    0-..... 
126      9  C8H11N               1                    
  1C 1 0  22  61  00  00  00  00  226  171    0--.... 
  2C 1 0  12  31  00  00  00  00  190  157    0--.... 
  3C 1 0  21  42  00  00  00  00  190  129    0--.... 
  4C 0 0  32  51  75  00  00  00  226  115    0---... 
  5C 1 0  41  62  00  00  00  00  262  129    0--.... 
  6C 1 0  11  52  00  00  00  00  262  157    0--.... 
  7N 0 0  45  85  95  00  00  00  226   87    0---... 
  8C 3 0  75  00  00  00  00  00  262   73    0-..... 
  9C 3 0  75  00  00  00  00  00  190   73    0-..... 
127     11  C10H15N              1                    
  1C 1 0  22  61  00  00  00  00  226  171    0--.... 
  2C 1 0  12  31  00  00  00  00  190  157    0--.... 
  3C 1 0  21  42  00  00  00  00  190  129    0--.... 
  4C 0 0  32  51  75  00  00  00  226  115    0---... 
  5C 1 0  41  62  00  00  00  00  262  129    0--.... 
  6C 1 0  11  52  00  00  00  00  262  157    0--.... 
  7N 0 0  45  85  95  00  00  00  226   87    0---... 
  8C 2 0  75 105  00  00  00  00  262   73    0--.... 
  9C 2 0  75 115  00  00  00  00  190   73    0--.... 
 10C 3 0  85  00  00  00  00  00  298   87    0-..... 
 11C 3 0  95  00  00  00  00  00  154   87    0-..... 
128      8  C6FH6N               1                    
  1C 0 0  22  61  85  00  00  00  226  171    0---... 
  2C 1 0  12  31  00  00  00  00  190  157    0--.... 
  3C 1 0  21  42  00  00  00  00  190  129    0--.... 
  4C 0 0  32  51  75  00  00  00  226  115    0---... 
  5C 1 0  41  62  00  00  00  00  262  129    0--.... 
  6C 1 0  11  52  00  00  00  00  262  157    0--.... 
  7N 2 0  45  00  00  00  00  00  226   87    0-..... 
  8F 0 0  15  00  00  00  00  00  226  199    0-..... 
129      8  C6ClH6N              1                    
  1C 0 0  22  61  85  00  00  00  226  171    0---... 
  2C 1 0  12  31  00  00  00  00  190  157    0--.... 
  3C 1 0  21  42  00  00  00  00  190  129    0--.... 
  4C 0 0  32  51  75  00  00  00  226  115    0---... 
  5C 1 0  41  62  00  00  00  00  262  129    0--.... 
  6C 1 0  11  52  00  00  00  00  262  157    0--.... 
  7N 2 0  45  00  00  00  00  00  226   87    0-..... 
  8CL0 0  15  00  00  00  00  00  226  199    0-..... 
130      8  BrC6H6N              1                    
  1C 0 0  22  61  85  00  00  00  226  171    0---... 
  2C 1 0  12  31  00  00  00  00  190  157    0--.... 
  3C 1 0  21  42  00  00  00  00  190  129    0--.... 
  4C 0 0  32  51  75  00  00  00  226  115    0---... 
  5C 1 0  41  62  00  00  00  00  262  129    0--.... 
  6C 1 0  11  52  00  00  00  00  262  157    0--.... 
  7N 2 0  45  00  00  00  00  00  226   87    0-..... 
  8BR0 0  15  00  00  00  00  00  226  199    0-..... 
131      9  C8H11N               1                    
  1C 1 0  22  61  00  00  00  00  226  171    0--.... 
  2C 1 0  12  31  00  00  00  00  190  157    0--.... 
  3C 0 0  21  42  95  00  00  00  190  129    0---... 
  4C 0 0  32  51  75  00  00  00  226  115    0---... 
  5C 0 0  41  62  85  00  00  00  262  129    0---... 
  6C 1 0  11  52  00  00  00  00  262  157    0--.... 
  7N 2 0  45  00  00  00  00  00  226   87    0-..... 
  8C 3 0  55  00  00  00  00  00  298  115    0-..... 
  9C 3 0  35  00  00  00  00  00  154  115    0-..... 
132      9  C8H11N               1                    
  1C 1 0  22  61  00  00  00  00  226  171    0--.... 
  2C 0 0  12  31  95  00  00  00  190  157    0---... 
  3C 1 0  21  42  00  00  00  00  190  129    0--.... 
  4C 0 0  32  51  75  00  00  00  226  115    0---... 
  5C 1 0  41  62  00  00  00  00  262  129    0--.... 
  6C 0 0  11  52  85  00  00  00  262  157    0---... 
  7N 2 0  45  00  00  00  00  00  226   87    0-..... 
  8C 3 0  65  00  00  00  00  00  298  171    0-..... 
  9C 3 0  25  00  00  00  00  00  154  171    0-..... 
133      9  C6Cl2H5N             1                    
  1C 1 0  22  61  00  00  00  00  226  171    0--.... 
  2C 1 0  12  31  00  00  00  00  190  157    0--.... 
  3C 0 0  21  42  95  00  00  00  190  129    0---... 
  4C 0 0  32  51  75  00  00  00  226  115    0---... 
  5C 0 0  41  62  85  00  00  00  262  129    0---... 
  6C 1 0  11  52  00  00  00  00  262  157    0--.... 
  7N 2 0  45  00  00  00  00  00  226   87    0-..... 
  8CL0 0  55  00  00  00  00  00  298  115    0-..... 
  9CL0 0  35  00  00  00  00  00  154  115    0-..... 
134      9  C6Cl2H5N             1                    
  1C 1 0  22  61  00  00  00  00  226  171    0--.... 
  2C 0 0  12  31  95  00  00  00  190  157    0---... 
  3C 1 0  21  42  00  00  00  00  190  129    0--.... 
  4C 0 0  32  51  75  00  00  00  226  115    0---... 
  5C 1 0  41  62  00  00  00  00  262  129    0--.... 
  6C 0 0  11  52  85  00  00  00  262  157    0---... 
  7N 2 0  45  00  00  00  00  00  226   87    0-..... 
  8CL0 0  65  00  00  00  00  00  298  171    0-..... 
  9CL0 0  25  00  00  00  00  00  154  171    0-..... 
135      5  C4H5N                1                    
  1N 1 0  21  51  00  00  00  00  226  171    0--.... 
  2C 1 0  11  32  00  00  00  00  190  157    0--.... 
  3C 1 0  22  41  00  00  00  00  190  129    0--.... 
  4C 1 0  52  31  00  00  00  00  262  129    0--.... 
  5C 1 0  11  42  00  00  00  00  262  157    0--.... 
136      8  C7H9N                1                    
  1C 0 0  22  61  75  00  00  00  229  166    0---... 
  2C 1 0  12  31  00  00  00  00  193  152    0--.... 
  3C 1 0  21  42  00  00  00  00  193  124    0--.... 
  4C 0 0  32  51  85  00  00  00  229  110    0---... 
  5C 1 0  41  62  00  00  00  00  265  124    0--.... 
  6C 1 0  52  11  00  00  00  00  265  152    0--.... 
  7C 3 0  15  00  00  00  00  00  229  194    0-..... 
  8N 2 0  45  00  00  00  00  00  229   82    0-..... 
137     18  C18H12               1                    
  1C 1 0  22  61  00  00  00  00  229  166    0--.... 
  2C 0 0  12  31 181  00  00  00  193  152    0---... 
  3C 0 0  21  42 151  00  00  00  193  124    0---... 
  4C 1 0  32  51  00  00  00  00  229  110    0--.... 
  5C 0 0  41  62  71  00  00  00  265  124    0---... 
  6C 0 0  11  52 101  00  00  00  265  152    0---... 
  7C 0 0  51  82 111  00  00  00  301  110    0---... 
  8C 0 0  72  91 141  00  00  00  337  124    0---... 
  9C 1 0  81 102  00  00  00  00  337  152    0--.... 
 10C 1 0  92  61  00  00  00  00  301  166    0--.... 
 11C 1 0  71 122  00  00  00  00  301   82    0--.... 
 12C 1 0 112 131  00  00  00  00  337   68    0--.... 
 13C 1 0 121 142  00  00  00  00  373   82    0--.... 
 14C 1 0 132  81  00  00  00  00  373  110    0--.... 
 15C 1 0  31 162  00  00  00  00  157  110    0--.... 
 16C 1 0 152 171  00  00  00  00  121  124    0--.... 
 17C 1 0 161 182  00  00  00  00  121  152    0--.... 
 18C 1 0 172  21  00  00  00  00  157  166    0--.... 
138     22  C22H14               1                    
  1C 1 0  22  61  00  00  00  00  229  166    0--.... 
  2C 0 0  12  31 181  00  00  00  193  152    0---... 
  3C 0 0  21  42 151  00  00  00  193  124    0---... 
  4C 1 0  32  51  00  00  00  00  229  110    0--.... 
  5C 0 0  41  62  71  00  00  00  265  124    0---... 
  6C 0 0  11  52 101  00  00  00  265  152    0---... 
  7C 0 0  51  82 111  00  00  00  301  110    0---... 
  8C 0 0  72  91 141  00  00  00  337  124    0---... 
  9C 1 0  81 102  00  00  00  00  337  152    0--.... 
 10C 1 0  61  92  00  00  00  00  301  166    0--.... 
 11C 1 0  71 122  00  00  00  00  301   82    0--.... 
 12C 1 0 112 131  00  00  00  00  337   68    0--.... 
 13C 1 0 121 142  00  00  00  00  373   82    0--.... 
 14C 1 0  81 132  00  00  00  00  373  110    0--.... 
 15C 1 0  31 162  00  00  00  00  157  110    0--.... 
 16C 1 0 152 171  00  00  00  00  121  124    0--.... 
 17C 0 0 161 182 221  00  00  00  121  152    0---... 
 18C 0 0  21 172 191  00  00  00  157  166    0---... 
 19C 1 0 181 202  00  00  00  00  157  194    0--.... 
 20C 1 0 192 211  00  00  00  00  121  208    0--.... 
 21C 1 0 201 222  00  00  00  00   85  194    0--.... 
 22C 1 0 212 171  00  00  00  00   85  166    0--.... 
139     18  C18H24               1                    
  1C 0 0  22  41 181  00  00  00  222  170    0---... 
  2C 0 0  12  91 101  00  00  00  186  156    0---... 
  3C 0 0  42  51 121  00  00  00  258  128    0---... 
  4C 0 0  11  32  81  00  00  00  258  156    0---... 
  5C 2 0  31  61  00  00  00  00  294  114    0--.... 
  6C 2 0  51  71  00  00  00  00  330  128    0--.... 
  7C 2 0  61  81  00  00  00  00  330  156    0--.... 
  8C 2 0  41  71  00  00  00  00  294  170    0--.... 
  9C 0 0  21 111 122  00  00  00  186  128    0---... 
 10C 2 0  21 161  00  00  00  00  150  170    0--.... 
 11C 2 0  91 131  00  00  00  00  150  114    0--.... 
 12C 0 0  31  92 151  00  00  00  222  114    0---... 
 13C 2 0 111 141  00  00  00  00  150   86    0--.... 
 14C 2 0 131 151  00  00  00  00  186   72    0--.... 
 15C 2 0 121 141  00  00  00  00  222   86    0--.... 
 16C 2 0 101 171  00  00  00  00  150  198    0--.... 
 17C 2 0 161 181  00  00  00  00  186  212    0--.... 
 18C 2 0  11 171  00  00  00  00  222  198    0--.... 
140     13  C13H10               1                    
  1C 2 0  21  51  00  00  00  00  229  166    0--.... 
  2C 0 0  11  32  91  00  00  00  193  152    0---... 
  3C 0 0  22 111  41  00  00  00  193  124    0---... 
  4C 0 0  52  61  31  00  00  00  265  124    0---... 
  5C 0 0  11  42 131  00  00  00  265  152    0---... 
  6C 1 0  41  72  00  00  00  00  301  110    0--.... 
  7C 1 0  62 121  00  00  00  00  337  124    0--.... 
  8C 1 0  92 101  00  00  00  00  121  152    0--.... 
  9C 1 0  21  82  00  00  00  00  157  166    0--.... 
 10C 1 0  81 112  00  00  00  00  121  124    0--.... 
 11C 1 0 102  31  00  00  00  00  157  110    0--.... 
 12C 1 0  71 132  00  00  00  00  337  152    0--.... 
 13C 1 0 122  51  00  00  00  00  301  166    0--.... 
141     17  C17H12               1                    
  1C 2 0  21  51  00  00  00  00  229  166    0--.... 
  2C 0 0  11  32  91  00  00  00  193  152    0---... 
  3C 0 0  22 111  41  00  00  00  193  124    0---... 
  4C 0 0  31  52  61  00  00  00  265  124    0---... 
  5C 0 0  11  42 131  00  00  00  265  152    0---... 
  6C 0 0  41  72 141  00  00  00  301  110    0---... 
  7C 0 0  62 121 171  00  00  00  337  124    0---... 
  8C 1 0  92 101  00  00  00  00  121  152    0--.... 
  9C 1 0  21  82  00  00  00  00  157  166    0--.... 
 10C 1 0  81 112  00  00  00  00  121  124    0--.... 
 11C 1 0  31 102  00  00  00  00  157  110    0--.... 
 12C 1 0  71 132  00  00  00  00  337  152    0--.... 
 13C 1 0  51 122  00  00  00  00  301  166    0--.... 
 14C 1 0  61 152  00  00  00  00  301   82    0--.... 
 15C 1 0 142 161  00  00  00  00  337   68    0--.... 
 16C 1 0 151 172  00  00  00  00  373   82    0--.... 
 17C 1 0 162  71  00  00  00  00  373  110    0--.... 
142     26  C26H18               1                    
  1C 1 0  21  51 145  00  00  00  229  166    0---... 
  2C 0 0  11  32  91  00  00  00  193  152    0---... 
  3C 0 0  22 111  41  00  00  00  193  124    0---... 
  4C 0 0  31  52  61  00  00  00  265  124    0---... 
  5C 0 0  11  42 131  00  00  00  265  152    0---... 
  6C 1 0  41  72  00  00  00  00  301  110    0--.... 
  7C 1 0  62 121  00  00  00  00  337  124    0--.... 
  8C 1 0  92 101  00  00  00  00  121  152    0--.... 
  9C 1 0  21  82  00  00  00  00  157  166    0--.... 
 10C 1 0  81 112  00  00  00  00  121  124    0--.... 
 11C 1 0  31 102  00  00  00  00  157  110    0--.... 
 12C 1 0  71 132  00  00  00  00  337  152    0--.... 
 13C 1 0  51 122  00  00  00  00  301  166    0--.... 
 14C 1 0  15 151 211  00  00  00  229  194    0---... 
 15C 0 0 141 161 202  00  00  00  193  208    0---... 
 16C 1 0 151 172  00  00  00  00  157  194    0--.... 
 17C 1 0 162 181  00  00  00  00  121  208    0--.... 
 18C 1 0 171 192  00  00  00  00  121  236    0--.... 
 19C 1 0 182 201  00  00  00  00  157  250    0--.... 
 20C 0 0 191 152 221  00  00  00  193  236    0---... 
 21C 0 0 141 222 261  00  00  00  265  208    0---... 
 22C 0 0 212 231 201  00  00  00  265  236    0---... 
 23C 1 0 221 242  00  00  00  00  301  250    0--.... 
 24C 1 0 232 251  00  00  00  00  337  236    0--.... 
 25C 1 0 241 262  00  00  00  00  337  208    0--.... 
 26C 1 0 252 211  00  00  00  00  301  194    0--.... 
143     24  C24H12               1                    
  1C 0 0  22  51 141  00  00  00  229  166    0---... 
  2C 0 0  12  31  91  00  00  00  193  152    0---... 
  3C 0 0  21 111 192  00  00  00  193  124    0---... 
  4C 0 0  52  61 191  00  00  00  265  124    0---... 
  5C 0 0  11  42 131  00  00  00  265  152    0---... 
  6C 0 0  41  72 241  00  00  00  301  110    0---... 
  7C 1 0  62 121  00  00  00  00  337  124    0--.... 
  8C 1 0  91 102  00  00  00  00  121  152    0--.... 
  9C 0 0  21  81 162  00  00  00  157  166    0---... 
 10C 1 0  82 111  00  00  00  00  121  124    0--.... 
 11C 0 0  31 101 202  00  00  00  157  110    0---... 
 12C 1 0  71 132  00  00  00  00  337  152    0--.... 
 13C 0 0  51 122 181  00  00  00  301  166    0---... 
 14C 0 0  11 152 171  00  00  00  229  194    0---... 
 15C 1 0 142 161  00  00  00  00  193  208    0--.... 
 16C 1 0 151  92  00  00  00  00  157  194    0--.... 
 17C 1 0 141 182  00  00  00  00  265  208    0--.... 
 18C 1 0 172 131  00  00  00  00  301  194    0--.... 
 19C 0 0  32  41 221  00  00  00  229  110    0---... 
 20C 1 0 112 211  00  00  00  00  157   82    0--.... 
 21C 1 0 201 222  00  00  00  00  193   68    0--.... 
 22C 0 0 212 231 191  00  00  00  229   82    0---... 
 23C 1 0 221 242  00  00  00  00  265   68    0--.... 
 24C 1 0 232  61  00  00  00  00  301   82    0--.... 
144      6  C5H5N                1                    
  1N 0 0  22  51  00  00  00  00  229  166    0--.... 
  2C 1 0  12  31  00  00  00  00  193  152    0--.... 
  3C 1 0  21  62  00  00  00  00  193  124    0--.... 
  4C 1 0  52  61  00  00  00  00  265  124    0--.... 
  5C 1 0  11  42  00  00  00  00  265  152    0--.... 
  6C 1 0  32  41  00  00  00  00  229  110    0--.... 
145     10  C9H7N                1                    
  1N 0 0  22  51  00  00  00  00  229  166    0--.... 
  2C 0 0  12  31 101  00  00  00  193  152    0---... 
  3C 0 0  21  62  71  00  00  00  193  124    0---... 
  4C 1 0  52  61  00  00  00  00  265  124    0--.... 
  5C 1 0  11  42  00  00  00  00  265  152    0--.... 
  6C 1 0  32  41  00  00  00  00  229  110    0--.... 
  7C 1 0  31  82  00  00  00  00  157  110    0--.... 
  8C 1 0  72  91  00  00  00  00  121  124    0--.... 
  9C 1 0  81 102  00  00  00  00  121  152    0--.... 
 10C 1 0  92  21  00  00  00  00  157  166    0--.... 
146     10  C9H7N                1                    
  1C 0 0  21  91 102  00  00  00  193  152    0---... 
  2C 0 0  11  52  61  00  00  00  193  124    0---... 
  3C 1 0  42  51  00  00  00  00  265  124    0--.... 
  4N 0 0  32 101  00  00  00  00  265  152    0--.... 
  5C 1 0  22  31  00  00  00  00  229  110    0--.... 
  6C 1 0  21  72  00  00  00  00  157  110    0--.... 
  7C 1 0  62  81  00  00  00  00  121  124    0--.... 
  8C 1 0  71  92  00  00  00  00  121  152    0--.... 
  9C 1 0  11  82  00  00  00  00  157  166    0--.... 
 10C 1 0  12  41  00  00  00  00  229  166    0--.... 
147     11  C10H9N               1                    
  1C 0 0  21  91 102  00  00  00  193  152    0---... 
  2C 0 0  11  52  61  00  00  00  193  124    0---... 
  3C 1 0  42  51  00  00  00  00  265  124    0--.... 
  4N 0 0  32 101  00  00  00  00  265  152    0--.... 
  5C 1 0  22  31  00  00  00  00  229  110    0--.... 
  6C 1 0  21  72  00  00  00  00  157  110    0--.... 
  7C 1 0  62  81  00  00  00  00  121  124    0--.... 
  8C 1 0  71  92  00  00  00  00  121  152    0--.... 
  9C 1 0  11  82  00  00  00  00  157  166    0--.... 
 10C 0 0  12  41 115  00  00  00  229  166    0---... 
 11C 3 0 105  00  00  00  00  00  229  194    0-..... 
148     11  C10H9N               1                    
  1C 0 0  21  81  92  00  00  00  193  152    0---... 
  2C 0 0  11  42  51  00  00  00  193  124    0---... 
  3C 1 0  41 102  00  00  00  00  265  124    0--.... 
  4C 1 0  22  31  00  00  00  00  229  110    0--.... 
  5C 1 0  21  62  00  00  00  00  157  110    0--.... 
  6C 1 0  52  71  00  00  00  00  121  124    0--.... 
  7C 1 0  61  82  00  00  00  00  121  152    0--.... 
  8C 1 0  11  72  00  00  00  00  157  166    0--.... 
  9N 0 0  12 101  00  00  00  00  229  166    0--.... 
 10C 0 0  32  91 115  00  00  00  265  152    0---... 
 11C 3 0 105  00  00  00  00  00  301  166    0-..... 
149      5  C2H5NO2              1                    
  1C 3 0  25  00  00  00  00  00  153  138    0-..... 
  2C 2 0  15  35  00  00  00  00  189  124    0--.... 
  3O 0 0  25  45  00  00  00  00  225  138    0--.... 
  4N 0 0  35  56  00  00  00  00  261  124    0--.... 
  5O 0 0  46  00  00  00  00  00  297  138    0-..... 
150      2  CHN                  1                    
  1C 1 0  27  00  00  00  00  00  215  130    0-..... 
  2N 0 0  17  00  00  00  00  00  257  130    0-..... 
151      4  C2N2                 1                    
  1C 0 0  27  35  00  00  00  00  215  130    0--.... 
  2N 0 0  17  00  00  00  00  00  257  130    0-..... 
  3C 0 0  15  47  00  00  00  00  173  130    0--.... 
  4N 0 0  37  00  00  00  00  00  131  130    0-..... 
152      3  C2H3N                1                    
  1C 0 0  27  35  00  00  00  00  215  130    0--.... 
  2N 0 0  17  00  00  00  00  00  257  130    0-..... 
  3C 3 0  15  00  00  00  00  00  173  130    0-..... 
153      4  C3H5N                1                    
  1C 0 0  27  35  00  00  00  00  215  130    0--.... 
  2N 0 0  17  00  00  00  00  00  257  130    0-..... 
  3C 2 0  15  45  00  00  00  00  173  130    0--.... 
  4C 3 0  35  00  00  00  00  00  137  144    0-..... 
154      5  C4H7N                1                    
  1C 0 0  27  35  00  00  00  00  215  130    0--.... 
  2N 0 0  17  00  00  00  00  00  257  130    0-..... 
  3C 1 0  15  45  55  00  00  00  173  130    0---... 
  4C 3 0  35  00  00  00  00  00  152  106    0-..... 
  5C 3 0  35  00  00  00  00  00  152  154    0-..... 
155      6  C5H9N                1                    
  1C 0 0  27  55  00  00  00  00  215  130    0--.... 
  2N 0 0  17  00  00  00  00  00  257  130    0-..... 
  3C 3 0  55  00  00  00  00  00  152  106    0-..... 
  4C 3 0  55  00  00  00  00  00  152  154    0-..... 
  5C 0 0  35  15  45  65  00  00  173  130    0----.. 
  6C 3 0  55  00  00  00  00  00  131  130    0-..... 
156      5  C3H2N2               1                    
  1C 2 0  25  45  00  00  00  00  190  136    0--.... 
  2C 0 0  15  37  00  00  00  00  211  112    0--.... 
  3N 0 0  27  00  00  00  00  00  232   88    0-..... 
  4C 0 0  15  57  00  00  00  00  211  160    0--.... 
  5N 0 0  47  00  00  00  00  00  232  184    0-..... 
157      4  C2ClH2N              1                    
  1C 2 0  25  45  00  00  00  00  190  136    0--.... 
  2C 0 0  15  37  00  00  00  00  211  112    0--.... 
  3N 0 0  27  00  00  00  00  00  232   88    0-..... 
  4CL0 0  15  00  00  00  00  00  211  160    0-..... 
158      6  C2Cl3N               1                    
  1C 0 0  25  35  45  55  00  00  188  135    0----.. 
  2CL0 0  15  00  00  00  00  00  146  135    0-..... 
  3CL0 0  15  00  00  00  00  00  167  111    0-..... 
  4CL0 0  15  00  00  00  00  00  167  159    0-..... 
  5C 0 0  15  67  00  00  00  00  230  135    0--.... 
  6N 0 0  57  00  00  00  00  00  272  135    0-..... 
159     16  C15H9N               1                    
  1C 1 0  21 102  00  00  00  00  230  172    0--.... 
[...]
253      6  C4H9NO               1                    
  1C 0 0  26  35  65  00  00  00  233  140    0---... 
  2O 0 0  16  00  00  00  00  00  254  116    0-..... 
  3N 1 0  15  45  00  00  00  00  254  164    0--.... 
  4C 2 0  35  55  00  00  00  00  296  164    0--.... 
  5C 3 0  45  00  00  00  00  00  317  140    0-..... 
  6C 3 0  15  00  00  00  00  00  191  140    0-..... 
254      5  C3H7NO               1                    
  1C 0 0  26  35  55  00  00  00  233  140    0---... 
  2O 0 0  16  00  00  00  00  00  254  116    0-..... 
  3N 1 0  15  45  00  00  00  00  254  164    0--.... 
  4C 3 0  35  00  00  00  00  00  296  164    0-..... 
  5C 3 0  15  00  00  00  00  00  191  140    0-..... 
255      8  C6H13NO              1                    
  1C 0 0  26  35  55  00  00  00  233  140    0---... 
  2O 0 0  16  00  00  00  00  00  254  116    0-..... 
  3N 0 0  15  45  75  00  00  00  254  164    0---... 
  4C 2 0  35  65  00  00  00  00  296  164    0--.... 
  5C 3 0  15  00  00  00  00  00  191  140    0-..... 
  6C 3 0  45  00  00  00  00  00  317  140    0-..... 
  7C 2 0  35  85  00  00  00  00  254  192    0--.... 
  8C 3 0  75  00  00  00  00  00  290  206    0-..... 
256      9  C7H7NO               1                    
  1C 1 0  22  61  00  00  00  00  227  181    0--.... 
  2C 1 0  12  31  00  00  00  00  191  167    0--.... 
  3C 1 0  21  42  00  00  00  00  191  139    0--.... 
  4C 0 0  32  51  75  00  00  00  227  125    0---... 
  5C 1 0  41  62  00  00  00  00  263  139    0--.... 
  6C 1 0  52  11  00  00  00  00  263  167    0--.... 
  7C 0 0  45  86  95  00  00  00  227   97    0---... 
  8O 0 0  76  00  00  00  00  00  194   82    0-.....
  9N 2 0  75  00  00  00  00  00  260   82    0-.....
257     10  C6H6N2O2             1                    
  1C 0 0  22  61 105  00  00  00  227  181    0---... 
  2C 1 0  12  31  00  00  00  00  191  167    0--.... 
  3C 1 0  21  42  00  00  00  00  191  139    0--.... 
  4C 0 0  32  51  75  00  00  00  227  125    0---... 
  5C 1 0  41  62  00  00  00  00  263  139    0--.... 
  6C 1 0  11  52  00  00  00  00  263  167    0--.... 
  7N 0 0  45  86  96  00  00  00  227   97    0---...
  8O 0 0  76  00  00  00  00  00  194   82    0-.....
  9O 0 0  76  00  00  00  00  00  260   82    0-.....
 10N 2 0  15  00  00  00  00  00  227  209    0-..... 
258     10  C7H7NO2              1                    
  1C 0 0  22  61 105  00  00  00  227  181    0---... 
  2C 1 0  12  31  00  00  00  00  191  167    0--.... 
  3C 1 0  21  42  00  00  00  00  191  139    0--.... 
  4C 0 0  32  51  75  00  00  00  227  125    0---... 
  5C 1 0  41  62  00  00  00  00  263  139    0--.... 
  6C 1 0  11  52  00  00  00  00  263  167    0--.... 
  7N 0 0  45  86  96  00  00  00  227   97    0---... 
  8O 0 0  76  00  00  00  00  00  194   82    0-..... 
  9O 0 0  76  00  00  00  00  00  260   82    0-..... 
 10C 3 0  15  00  00  00  00  00  227  209    0-..... 
259      9  C6H5NO2              1                    
  1C 1 0  22  61  00  00  00  00  227  181    0--.... 
  2C 1 0  12  31  00  00  00  00  191  167    0--.... 
  3C 1 0  21  42  00  00  00  00  191  139    0--.... 
  4C 0 0  32  51  75  00  00  00  227  125    0---... 
  5C 1 0  41  62  00  00  00  00  263  139    0--.... 
  6C 1 0  11  52  00  00  00  00  263  167    0--.... 
  7N 0 0  45  86  96  00  00  00  227   97    0---... 
  8O 0 0  76  00  00  00  00  00  194   82    0-..... 
  9O 0 0  76  00  00  00  00  00  260   82    0-..... 
260      3  C2H6S                1                    
  1C 3 0  25  00  00  00  00  00  179  156    0-..... 
  2C 2 0  15  35  00  00  00  00  215  142    0--.... 
  3S 1 0  25  00  00  00  00  00  251  156    0-..... 
261      5  C4H10S               1                    
  1C 3 0  25  00  00  00  00  00  179  156    0-..... 
  2C 2 0  15  35  00  00  00  00  215  142    0--.... 
  3S 0 0  25  45  00  00  00  00  251  156    0--.... 
  4C 2 0  35  55  00  00  00  00  287  142    0--.... 
  5C 3 0  45  00  00  00  00  00  323  156    0-..... 
262      3  C2H6S                1                    
  1C 3 0  25  00  00  00  00  00  215  142    0-..... 
  2S 0 0  15  35  00  00  00  00  251  156    0--.... 
  3C 3 0  25  00  00  00  00  00  287  142    0-..... 
263      4  C2H6OS               1                    
  1C 3 0  25  00  00  00  00  00  215  142    0-..... 
  2S 0 0  15  35  46  00  00  00  251  156    0---... 
  3C 3 0  25  00  00  00  00  00  287  142    0-..... 
  4O 0 0  26  00  00  00  00  00  251  184    0-..... 
264      5  C2H6O2S              1                    
  1C 3 0  25  00  00  00  00  00  215  142    0-..... 
  2S 0 0  15  35  46  56  00  00  251  156    0----.. 
  3C 3 0  25  00  00  00  00  00  287  142    0-..... 
  4O 0 0  26  00  00  00  00  00  280  176    0-..... 
  5O 0 0  26  00  00  00  00  00  230  180    0-..... 
265     13  C12H10S              1                    
  1C 0 0  25  42  81  00  00  00  215  142    0---... 
  2S 0 0  15  35  00  00  00  00  251  156    0--.... 
  3C 0 0  25  91 132  00  00  00  287  142    0---... 
  4C 1 0  12  51  00  00  00  00  215  114    0--.... 
  5C 1 0  41  62  00  00  00  00  179  100    0--.... 
  6C 1 0  52  71  00  00  00  00  143  114    0--.... 
  7C 1 0  61  82  00  00  00  00  143  142    0--.... 
  8C 1 0  72  11  00  00  00  00  179  156    0--.... 
  9C 1 0  31 102  00  00  00  00  287  114    0--.... 
 10C 1 0  92 111  00  00  00  00  323  100    0--.... 
 11C 1 0 101 122  00  00  00  00  359  114    0--.... 
 12C 1 0 112 131  00  00  00  00  359  142    0--.... 
 13C 1 0 121  32  00  00  00  00  323  156    0--.... 
266     14  C12H10OS             1                    
  1C 0 0  25  42  81  00  00  00  215  142    0---... 
  2S 0 0  15  35 146  00  00  00  251  156    0---... 
  3C 0 0  25  91 132  00  00  00  287  142    0---... 
  4C 1 0  12  51  00  00  00  00  215  114    0--.... 
  5C 1 0  41  62  00  00  00  00  179  100    0--.... 
  6C 1 0  52  71  00  00  00  00  143  114    0--.... 
  7C 1 0  61  82  00  00  00  00  143  142    0--.... 
  8C 1 0  11  72  00  00  00  00  179  156    0--.... 
  9C 1 0  31 102  00  00  00  00  287  114    0--.... 
 10C 1 0  92 111  00  00  00  00  323  100    0--.... 
 11C 1 0 101 122  00  00  00  00  359  114    0--.... 
 12C 1 0 112 131  00  00  00  00  359  142    0--.... 
 13C 1 0  32 121  00  00  00  00  323  156    0--.... 
 14O 0 0  26  00  00  00  00  00  251  184    0-..... 
267     15  C12H10O2S            1                    
  1C 0 0  25  42  81  00  00  00  215  142    0---... 
  2S 0 0  15  35 146 156  00  00  251  156    0----.. 
  3C 0 0  25  91 132  00  00  00  287  142    0---... 
  4C 1 0  12  51  00  00  00  00  215  114    0--.... 
  5C 1 0  41  62  00  00  00  00  179  100    0--.... 
  6C 1 0  52  71  00  00  00  00  143  114    0--.... 
  7C 1 0  61  82  00  00  00  00  143  142    0--.... 
  8C 1 0  11  72  00  00  00  00  179  156    0--.... 
  9C 1 0  31 102  00  00  00  00  287  114    0--.... 
 10C 1 0  92 111  00  00  00  00  323  100    0--.... 
 11C 1 0 101 122  00  00  00  00  359  114    0--.... 
 12C 1 0 112 131  00  00  00  00  359  142    0--.... 
 13C 1 0  32 121  00  00  00  00  323  156    0--.... 
 14O 0 0  26  00  00  00  00  00  251  184    0-..... 
 15O 0 0  26  00  00  00  00  00  251  128    0-..... 
268      5  C4H4S                1                    
  1C 1 0  21  42  00  00  00  00  215  142    0--.... 
  2S 0 0  11  31  00  00  00  00  251  156    0--.... 
  3C 1 0  21  52  00  00  00  00  287  142    0--.... 
  4C 1 0  12  51  00  00  00  00  215  114    0--.... 
  5C 1 0  32  41  00  00  00  00  287  114    0--.... 
269      3  CS2                  1                    
  1S 0 0  26  00  00  00  00  00  215  142    0-..... 
  2C 0 0  16  36  00  00  00  00  251  156    0--.... 
  3S 0 0  26  00  00  00  00  00  287  142    0-..... 
270      8  C3H9O4P              1                    
  1P 0 0  25  35  65  86  00  00  251  156    0----.. 
  2O 0 0  15  55  00  00  00  00  209  156    0--.... 
  3O 0 0  15  45  00  00  00  00  230  132    0--.... 
  4C 3 0  35  00  00  00  00  00  194  118    0-..... 
  5C 3 0  25  00  00  00  00  00  167  156    0-..... 
  6O 0 0  15  75  00  00  00  00  230  180    0--.... 
  7C 3 0  65  00  00  00  00  00  194  194    0-..... 
  8O 0 0  16  00  00  00  00  00  293  156    0-..... 
271      9  C5H9O3P              1                    
  1P 0 0  21  31  61  00  00  00  251  156    0---... 
  2O 0 0  11  51  00  00  00  00  209  156    0--.... 
  3O 0 0  11  41  00  00  00  00  230  132    0--.... 
  4C 2 0  31  81  00  00  00  00  194  118    0--.... 
  5C 2 0  21  81  00  00  00  00  167  156    0--.... 
  6O 0 0  11  71  00  00  00  00  230  180    0--.... 
  7C 2 0  61  81  00  00  00  00  194  194    0--.... 
  8C 0 0  41  51  71  95  00  00  137  145    0----.. 
  9C 3 0  85  00  00  00  00  00   95  145    0-..... 
272     10  C5H9O4P              1                    
  1P 0 0  21  31  61 106  00  00  251  156    0----.. 
  2O 0 0  11  51  00  00  00  00  209  156    0--.... 
  3O 0 0  11  41  00  00  00  00  230  132    0--.... 
  4C 2 0  31  81  00  00  00  00  194  118    0--.... 
  5C 2 0  21  81  00  00  00  00  167  156    0--.... 
  6O 0 0  11  71  00  00  00  00  230  180    0--.... 
  7C 2 0  61  81  00  00  00  00  194  194    0--.... 
  8C 0 0  41  51  71  95  00  00  137  145    0----.. 
  9C 3 0  85  00  00  00  00  00   95  145    0-..... 
 10O 0 0  16  00  00  00  00  00  293  156    0-..... 
273     10  C5H9O3PS             1                    
  1P 0 0  21  31  61 106  00  00  251  156    0----.. 
  2O 0 0  11  51  00  00  00  00  209  156    0--.... 
  3O 0 0  11  41  00  00  00  00  230  132    0--.... 
  4C 2 0  31  81  00  00  00  00  194  118    0--.... 
  5C 2 0  21  81  00  00  00  00  167  156    0--.... 
  6O 0 0  11  71  00  00  00  00  230  180    0--.... 
  7C 2 0  61  81  00  00  00  00  194  194    0--.... 
  8C 0 0  41  51  71  95  00  00  137  145    0----.. 
  9C 3 0  85  00  00  00  00  00   95  145    0-..... 
 10S 0 0  16  00  00  00  00  00  293  156    0-..... 
274     16  C16H10               1                    
  1C 0 0  21 101  62  00  00  00  225  189    0---... 
  2C 1 0  11  32  00  00  00  00  189  203    0--.... 
  3C 1 0  22  41  00  00  00  00  153  189    0--.... 
  4C 1 0  31  52  00  00  00  00  153  161    0--.... 
  5C 0 0  42  61 111  00  00  00  189  147    0---... 
  6C 0 0  51  71  12  00  00  00  225  161    0---... 
  7C 0 0  61  82 121  00  00  00  261  147    0---... 
  8C 1 0  72  91  00  00  00  00  297  161    0--.... 
  9C 1 0  81 102  00  00  00  00  297  189    0--.... 
 10C 1 0  92  11  00  00  00  00  261  203    0--.... 
 11C 0 0  51 122 131  00  00  00  189  119    0---... 
 12C 0 0  71 112 151  00  00  00  261  119    0---... 
 13C 1 0 111 142  00  00  00  00  168   95    0--.... 
 14C 1 0 132 161  00  00  00  00  189   71    0--.... 
 15C 1 0 121 162  00  00  00  00  282   95    0--.... 
 16C 1 0 152 141  00  00  00  00  261   71    0--.... 
275     18  C18H12               1                    
  1C 0 0  21 101  62  00  00  00  225  189    0---... 
  2C 1 0  11  32  00  00  00  00  189  203    0--.... 
  3C 0 0  22  41 141  00  00  00  153  189    0---... 
  4C 0 0  31  52 111  00  00  00  153  161    0---... 
  5C 1 0  42  61  00  00  00  00  189  147    0--.... 
  6C 0 0  12  51  71  00  00  00  225  161    0---... 
  7C 1 0  61  82  00  00  00  00  261  147    0--.... 
  8C 0 0  72  91 151  00  00  00  297  161    0---... 
  9C 0 0  81 102 181  00  00  00  297  189    0---... 
 10C 1 0  11  92  00  00  00  00  261  203    0--.... 
 11C 1 0  41 122  00  00  00  00  117  147    0--.... 
 12C 1 0 112 131  00  00  00  00   81  161    0--.... 
 13C 1 0 121 142  00  00  00  00   81  189    0--.... 
 14C 1 0 132  31  00  00  00  00  117  203    0--.... 
 15C 1 0  81 162  00  00  00  00  333  147    0--.... 
 16C 1 0 152 171  00  00  00  00  369  161    0--.... 
 17C 1 0 161 182  00  00  00  00  369  189    0--.... 
 18C 1 0 172  91  00  00  00  00  333  203    0--.... 
276     17  C16H10O              1                    
  1C 1 0  22  41  00  00  00  00  222  170    0--.... 
  2C 0 0  12  81  91  00  00  00  186  156    0---... 
  3C 0 0  42 111  51  00  00  00  258  128    0---... 
  4C 0 0  11  32  71  00  00  00  258  156    0---... 
  5C 0 0  62 141  31  00  00  00  330  128    0---... 
  6C 0 0  52  71 171  00  00  00  330  156    0---... 
  7O 0 0  41  61  00  00  00  00  294  170    0--.... 
  8C 0 0  21 101 112  00  00  00  186  128    0---... 
  9C 1 0  21 132  00  00  00  00  150  170    0--.... 
 10C 1 0  81 122  00  00  00  00  150  114    0--.... 
 11C 1 0  31  82  00  00  00  00  222  114    0--.... 
 12C 1 0 102 131  00  00  00  00  114  128    0--.... 
 13C 1 0 121  92  00  00  00  00  114  156    0--.... 
 14C 1 0  51 152  00  00  00  00  366  114    0--.... 
 15C 1 0 142 161  00  00  00  00  402  128    0--.... 
 16C 1 0 151 172  00  00  00  00  402  156    0--.... 
 17C 1 0 162  61  00  00  00  00  366  170    0--.... 
277     27  C27H18               1                    
  1C 0 0  22  41 131  00  00  00  222  170    0---... 
  2C 0 0  12  51  81  00  00  00  186  156    0---... 
  3C 0 0  42  61 111  00  00  00  258  128    0---... 
  4C 0 0  11  32 121  00  00  00  258  156    0---... 
  5C 0 0  21  62  71  00  00  00  186  128    0---... 
  6C 0 0  31  52 101  00  00  00  222  114    0---... 
  7C 0 0  51  91 272  00  00  00  150  114    0---... 
  8C 2 0  21  91  00  00  00  00  150  170    0--.... 
  9C 0 0  81  71 242  00  00  00  128  139    0---... 
 10C 0 0  61 151 162  00  00  00  222   86    0---... 
 11C 2 0  31 151  00  00  00  00  294  114    0--.... 
 12C 0 0  41 141 202  00  00  00  294  170    0---... 
 13C 2 0  11 141  00  00  00  00  222  198    0--.... 
 14C 0 0 131 121 232  00  00  00  264  198    0---... 
 15C 0 0 111 101 192  00  00  00  267   83    0---... 
 16C 1 0 102 171  00  00  00  00  201   62    0--.... 
 17C 1 0 161 182  00  00  00  00  222   38    0--.... 
 18C 1 0 172 191  00  00  00  00  264   38    0--.... 
 19C 1 0 181 152  00  00  00  00  285   62    0--.... 
 20C 1 0 122 211  00  00  00  00  336  170    0--.... 
 21C 1 0 201 222  00  00  00  00  336  198    0--.... 
 22C 1 0 212 231  00  00  00  00  315  222    0--.... 
 23C 1 0 221 142  00  00  00  00  273  222    0--.... 
 24C 1 0  92 251  00  00  00  00   86  139    0--.... 
 25C 1 0 241 262  00  00  00  00   86  111    0--.... 
 26C 1 0 252 271  00  00  00  00  107   87    0--.... 
 27C 1 0 261  72  00  00  00  00  149   87    0--.... 
278     28  C26H16O2             1                    
  1C 0 0  21  61  76  00  00  00  188  137    0---... 
  2C 0 0  11  32 211  00  00  00  167  113    0---... 
  3C 0 0  22  41 241  00  00  00  125  113    0---... 
  4O 0 0  31  51  00  00  00  00  104  137    0--.... 
  5C 0 0  41  62 251  00  00  00  125  161    0---... 
  6C 0 0  52  11 281  00  00  00  167  161    0---... 
  7C 0 0  16  81 121  00  00  00  230  137    0---... 
  8C 0 0  71  92 131  00  00  00  251  113    0---... 
  9C 0 0  82 101 161  00  00  00  293  113    0---... 
 10O 0 0  91 111  00  00  00  00  314  137    0--.... 
 11C 0 0 101 122 201  00  00  00  293  161    0---... 
 12C 0 0 112  71 171  00  00  00  251  161    0---... 
 13C 1 0  81 142  00  00  00  00  230   89    0--.... 
 14C 1 0 132 151  00  00  00  00  251   65    0--.... 
 15C 1 0 141 162  00  00  00  00  293   65    0--.... 
 16C 1 0 152  91  00  00  00  00  314   89    0--.... 
 17C 1 0 121 182  00  00  00  00  230  185    0--.... 
 18C 1 0 172 191  00  00  00  00  251  209    0--.... 
 19C 1 0 181 202  00  00  00  00  293  209    0--.... 
 20C 1 0 192 111  00  00  00  00  314  185    0--.... 
 21C 1 0  21 222  00  00  00  00  188   89    0--.... 
 22C 1 0 212 231  00  00  00  00  167   65    0--.... 
 23C 1 0 221 242  00  00  00  00  125   65    0--.... 
 24C 1 0 232  31  00  00  00  00  104   89    0--.... 
 25C 1 0  51 262  00  00  00  00  104  185    0--.... 
 26C 1 0 252 271  00  00  00  00  125  209    0--.... 
 27C 1 0 261 282  00  00  00  00  167  209    0--.... 
 28C 1 0 272  61  00  00  00  00  188  185    0--.... 
279     25  C24H12S              1                    
  1C 0 0  22 161  51  00  00  00  196  132    0---... 
  2C 0 0  12  31 221  00  00  00  196  160    0---... 
  3S 0 0  21  41  00  00  00  00  232  174    0--.... 
  4C 0 0  31  52  81  00  00  00  268  160    0---... 
  5C 0 0  42  61  11  00  00  00  268  132    0---... 
  6C 0 0  51  72  91  00  00  00  304  118    0---... 
  7C 0 0  62  81 121  00  00  00  325  142    0---... 
  8C 0 0  71  41 132  00  00  00  304  166    0---... 
  9C 1 0  61 102  00  00  00  00  325   94    0--.... 
 10C 1 0  92 111  00  00  00  00  367   94    0--.... 
 11C 1 0 101 122  00  00  00  00  388  118    0--.... 
 12C 0 0 112  71 151  00  00  00  367  142    0---... 
 13C 1 0  82 141  00  00  00  00  325  190    0--.... 
 14C 1 0 131 152  00  00  00  00  367  190    0--.... 
 15C 1 0 142 121  00  00  00  00  388  166    0--.... 
 16C 0 0  11 172 211  00  00  00  160  118    0---... 
 17C 1 0 162 181  00  00  00  00  139   94    0--.... 
 18C 1 0 171 192  00  00  00  00   97   94    0--.... 
 19C 1 0 182 201  00  00  00  00   76  118    0--.... 
 20C 0 0 191 211 252  00  00  00   97  142    0---... 
 21C 0 0 201 161 222  00  00  00  139  142    0---... 
 22C 0 0 212  21 231  00  00  00  160  166    0---... 
 23C 1 0 221 242  00  00  00  00  139  190    0--.... 
 24C 1 0 232 251  00  00  00  00   97  190    0--.... 
 25C 1 0 241 202  00  00  00  00   76  166    0--.... 
280      2  H2                   1                    
  1H 0 0  25  00  00  00  00  00  180  138    0-..... 
  2H 0 0  15  00  00  00  00  00  222  138    0-..... 
281      2  FH                   1                    
  1H 0 0  25  00  00  00  00  00  180  138    0-..... 
  2F 0 0  15  00  00  00  00  00  222  138    0-..... 
282      2  ClH                  1                    
  1H 0 0  25  00  00  00  00  00  180  138    0-..... 
  2CL0 0  15  00  00  00  00  00  222  138    0-..... 
283      2  BrH                  1                    
  1H 0 0  25  00  00  00  00  00  180  138    0-..... 
  2BR0 0  15  00  00  00  00  00  222  138    0-..... 
284      2  HI                   1                    
  1H 0 0  25  00  00  00  00  00  180  138    0-..... 
  2I 0 0  15  00  00  00  00  00  222  138    0-..... 
285      2  Cl2                  1                    
  1CL0 0  25  00  00  00  00  00  180  138    0-..... 
  2CL0 0  15  00  00  00  00  00  222  138    0-..... 
286      1  H3N                  1                    
  1N 3 0  00  00  00  00  00  00  217  132    0...... 
287      2  H4N2                 1                    
  1N 2 0  25  00  00  00  00  00  217  132    0-..... 
  2N 2 0  15  00  00  00  00  00  259  132    0-..... 
288      2  N2                   1                    
  1N 0 0  27  00  00  00  00  00  217  132    0-..... 
  2N 0 0  17  00  00  00  00  00  259  132    0-..... 
289      1  H2O                  1                    
  1O 2 0  00  00  00  00  00  00  228  131    0...... 
290      2  O2                   1                    
  1O 0 0  26  00  00  00  00  00  228  131    0-..... 
  2O 0 0  16  00  00  00  00  00  186  131    0-..... 
291      1  H2S                  1                    
  1S 2 0  00  00  00  00  00  00  186  131    0...... 
292      3  O2S                  1                    
  1S 0 0  26  36  00  00  00  00  186  131    0--.... 
  2O 0 0  16  00  00  00  00  00  228  131    0-..... 
  3O 0 0  16  00  00  00  00  00  144  131    0-..... 
293      3  N2O                  1                    
  1N 0 0  26  37  00  00  00  00  186  131    0--.... 
  2O 0 0  16  00  00  00  00  00  228  131    0-..... 
  3N 0 0  17  00  00  00  00  00  144  131    0-..... 
