1       26  C17Cl3H9N4O2         1                   
  1C 0 0  22 141 165  00  00  00  206  164    0---...
  2C 0 0  12  31 155  00  00  00  227  140    0---...
  3C 1 0  21  42  00  00  00  00  269  140    0--....
  4C 0 0  32  55 131  00  00  00  290  164    0---...
  5N 0 0  45  61 121  00  00  00  332  164    0---...
  6C 0 0  51  76  81  00  00  00  353  140    0---...
  7O 0 0  66  00  00  00  00  00  332  116    0-.....
  8N 1 0  61  91  00  00  00  00  395  140    0--....
  9C 0 0  81 106 111  00  00  00  416  164    0---...
 10O 0 0  96  00  00  00  00  00  458  164    0-.....
 11C 1 0  91 122  00  00  00  00  395  188    0--....
 12N 0 0 112  51  00  00  00  00  353  188    0--....
 13C 1 0  41 142  00  00  00  00  269  188    0--....
 14C 0 0 132  11 175  00  00  00  227  188    0---...
 15CL0 0  25  00  00  00  00  00  206  116    0-.....
 16C 1 0  15 185 205  00  00  00  164  164    0---...
 17CL0 0 145  00  00  00  00  00  206  212    0-.....
 18C 0 0 165 197  00  00  00  00  143  188    0--....
 19N 0 0 187  00  00  00  00  00  122  212    0-.....
 20C 0 0 165 212 251  00  00  00  143  140    0---...
 21C 1 0 202 221  00  00  00  00  101  140    0--....
 22C 1 0 211 232  00  00  00  00   80  116    0--....
 23C 0 0 222 241 265  00  00  00  101   92    0---...
 24C 1 0 231 252  00  00  00  00  143   92    0--....
 25C 1 0 242 201  00  00  00  00  164  116    0--....
 26CL0 0 235  00  00  00  00  00   80   68    0-.....
2       24  C15Cl3H8N3O2S        1                   
  1C 0 0  22 141 165  00  00  00  206  164    0---...
  2C 0 0  12  31 155  00  00  00  227  140    0---...
  3C 1 0  21  42  00  00  00  00  269  140    0--....
  4C 0 0  32  55 131  00  00  00  290  164    0---...
  5N 0 0  45  61 121  00  00  00  332  164    0---...
  6C 0 0  51  76  81  00  00  00  353  140    0---...
  7O 0 0  66  00  00  00  00  00  332  116    0-.....
  8N 1 0  61  91  00  00  00  00  395  140    0--....
  9C 0 0  81 106 111  00  00  00  416  164    0---...
 10O 0 0  96  00  00  00  00  00  458  164    0-.....
 11C 1 0  91 122  00  00  00  00  395  188    0--....
 12N 0 0  51 112  00  00  00  00  353  188    0--....
 13C 1 0  41 142  00  00  00  00  269  188    0--....
 14C 0 0  11 132 175  00  00  00  227  188    0---...
 15CL0 0  25  00  00  00  00  00  206  116    0-.....
 16S 0 0  15 185  00  00  00  00  164  164    0--....
 17CL0 0 145  00  00  00  00  00  206  212    0-.....
 18C 0 0 165 192 231  00  00  00  143  140    0---...
 19C 1 0 182 201  00  00  00  00  101  140    0--....
 20C 1 0 191 212  00  00  00  00   80  116    0--....
 21C 0 0 202 221 245  00  00  00  101   92    0---...
 22C 1 0 211 232  00  00  00  00  143   92    0--....
 23C 1 0 181 222  00  00  00  00  164  116    0--....
 24CL0 0 215  00  00  00  00  00   80   68    0-.....
3       24  C16Cl2H11N3O2S       1                   
  1C 0 0  22 141 165  00  00  00  206  164    0---...
  2C 0 0  12  31 155  00  00  00  227  140    0---...
  3C 1 0  21  42  00  00  00  00  269  140    0--....
  4C 0 0  32  55 131  00  00  00  290  164    0---...
  5N 0 0  45  61 121  00  00  00  332  164    0---...
  6C 0 0  51  76  81  00  00  00  353  140    0---...
  7O 0 0  66  00  00  00  00  00  332  116    0-.....
  8N 1 0  61  91  00  00  00  00  395  140    0--....
  9C 0 0  81 106 111  00  00  00  416  164    0---...
 10O 0 0  96  00  00  00  00  00  458  164    0-.....
 11C 1 0  91 122  00  00  00  00  395  188    0--....
 12N 0 0  51 112  00  00  00  00  353  188    0--....
 13C 1 0  41 142  00  00  00  00  269  188    0--....
 14C 0 0  11 132 175  00  00  00  227  188    0---...
 15CL0 0  25  00  00  00  00  00  206  116    0-.....
 16S 0 0  15 185  00  00  00  00  164  164    0--....
 17C 3 0 145  00  00  00  00  00  206  212    0-.....
 18C 0 0 165 192 231  00  00  00  143  140    0---...
 19C 1 0 182 201  00  00  00  00  101  140    0--....
 20C 1 0 191 212  00  00  00  00   80  116    0--....
 21C 0 0 202 221 245  00  00  00  101   92    0---...
 22C 1 0 211 232  00  00  00  00  143   92    0--....
 23C 1 0 181 222  00  00  00  00  164  116    0--....
 24CL0 0 215  00  00  00  00  00   80   68    0-.....
4       26  C18ClH14N3O3S        1                   
  1C 0 0  22 141 165  00  00  00  206  164    0---...
  2C 0 0  12  31 155  00  00  00  227  140    0---...
  3C 1 0  21  42  00  00  00  00  269  140    0--....
  4C 0 0  32  55 131  00  00  00  290  164    0---...
  5N 0 0  45  61 121  00  00  00  332  164    0---...
  6C 0 0  51  76  81  00  00  00  353  140    0---...
  7O 0 0  66  00  00  00  00  00  332  116    0-.....
  8N 1 0  61  91  00  00  00  00  395  140    0--....
  9C 0 0  81 106 111  00  00  00  416  164    0---...
 10O 0 0  96  00  00  00  00  00  458  164    0-.....
 11C 1 0  91 122  00  00  00  00  395  188    0--....
 12N 0 0  51 112  00  00  00  00  353  188    0--....
 13C 1 0  41 142  00  00  00  00  269  188    0--....
 14C 0 0  11 132 175  00  00  00  227  188    0---...
 15CL0 0  25  00  00  00  00  00  206  116    0-.....
 16S 0 0  15 185  00  00  00  00  164  164    0--....
 17C 3 0 145  00  00  00  00  00  206  212    0-.....
 18C 0 0 165 192 231  00  00  00  143  140    0---...
 19C 1 0 182 201  00  00  00  00  101  140    0--....
 20C 1 0 191 212  00  00  00  00   80  116    0--....
 21C 0 0 202 221 245  00  00  00  101   92    0---...
 22C 1 0 211 232  00  00  00  00  143   92    0--....
 23C 1 0 181 222  00  00  00  00  164  116    0--....
 24C 0 0 215 256 265  00  00  00   80   68    0---...
 25O 0 0 246  00  00  00  00  00   38   68    0-.....
 26C 3 0 245  00  00  00  00  00  101   44    0-.....
5       24  C16Cl3H10N3O2        1                   
  1C 0 0  22 141 165  00  00  00  206  164    0---...
  2C 0 0  12  31 155  00  00  00  227  140    0---...
  3C 1 0  21  42  00  00  00  00  269  140    0--....
  4C 0 0  32  55 131  00  00  00  290  164    0---...
  5N 0 0  45  61 121  00  00  00  332  164    0---...
  6C 0 0  51  76  81  00  00  00  353  140    0---...
  7O 0 0  66  00  00  00  00  00  332  116    0-.....
  8N 1 0  61  91  00  00  00  00  395  140    0--....
  9C 0 0  81 106 111  00  00  00  416  164    0---...
 10O 0 0  96  00  00  00  00  00  458  164    0-.....
 11C 1 0  91 122  00  00  00  00  395  188    0--....
 12N 0 0  51 112  00  00  00  00  353  188    0--....
 13C 1 0  41 142  00  00  00  00  269  188    0--....
 14C 0 0  11 132 175  00  00  00  227  188    0---...
 15CL0 0  25  00  00  00  00  00  206  116    0-.....
 16C 2 0  15 185  00  00  00  00  164  164    0--....
 17CL0 0 145  00  00  00  00  00  206  212    0-.....
 18C 0 0 165 192 231  00  00  00  143  140    0---...
 19C 1 0 182 201  00  00  00  00  101  140    0--....
 20C 1 0 191 212  00  00  00  00   80  116    0--....
 21C 0 0 202 221 245  00  00  00  101   92    0---...
 22C 1 0 211 232  00  00  00  00  143   92    0--....
 23C 1 0 181 222  00  00  00  00  164  116    0--....
 24CL0 0 215  00  00  00  00  00   80   68    0-.....
6       26  C15Cl3H8N3O4S        1                   
  1C 0 0  22 141 165  00  00  00  206  164    0---...
  2C 0 0  12  31 155  00  00  00  227  140    0---...
  3C 1 0  21  42  00  00  00  00  269  140    0--....
  4C 0 0  32  55 131  00  00  00  290  164    0---...
  5N 0 0  45  61 121  00  00  00  332  164    0---...
  6C 0 0  51  76  81  00  00  00  353  140    0---...
  7O 0 0  66  00  00  00  00  00  332  116    0-.....
  8N 1 0  61  91  00  00  00  00  395  140    0--....
  9C 0 0  81 106 111  00  00  00  416  164    0---...
 10O 0 0  96  00  00  00  00  00  458  164    0-.....
 11C 1 0  91 122  00  00  00  00  395  188    0--....
 12N 0 0  51 112  00  00  00  00  353  188    0--....
 13C 1 0  41 142  00  00  00  00  269  188    0--....
 14C 0 0  11 132 175  00  00  00  227  188    0---...
 15CL0 0  25  00  00  00  00  00  206  116    0-.....
 16S 0 0  15 185 256 266  00  00  164  164    0----..
 17CL0 0 145  00  00  00  00  00  206  212    0-.....
 18C 0 0 165 192 231  00  00  00  143  140    0---...
 19C 1 0 182 201  00  00  00  00  101  140    0--....
 20C 1 0 191 212  00  00  00  00   80  116    0--....
 21C 0 0 202 221 245  00  00  00  101   92    0---...
 22C 1 0 211 232  00  00  00  00  143   92    0--....
 23C 1 0 181 222  00  00  00  00  164  116    0--....
 24CL0 0 215  00  00  00  00  00   80   68    0-.....
 25O 0 0 166  00  00  00  00  00  128  178    0-.....
 26O 0 0 166  00  00  00  00  00  164  192    0-.....
7       25  C16Cl3H8N3O3         1                   
  1C 0 0  22 141 165  00  00  00  206  164    0---...
  2C 0 0  12  31 155  00  00  00  227  140    0---...
  3C 1 0  21  42  00  00  00  00  269  140    0--....
  4C 0 0  32  55 131  00  00  00  290  164    0---...
  5N 0 0  45  61 121  00  00  00  332  164    0---...
  6C 0 0  51  76  81  00  00  00  353  140    0---...
  7O 0 0  66  00  00  00  00  00  332  116    0-.....
  8N 1 0  61  91  00  00  00  00  395  140    0--....
  9C 0 0  81 106 111  00  00  00  416  164    0---...
 10O 0 0  96  00  00  00  00  00  458  164    0-.....
 11C 1 0  91 122  00  00  00  00  395  188    0--....
 12N 0 0  51 112  00  00  00  00  353  188    0--....
 13C 1 0  41 142  00  00  00  00  269  188    0--....
 14C 0 0  11 132 175  00  00  00  227  188    0---...
 15CL0 0  25  00  00  00  00  00  206  116    0-.....
 16C 0 0  15 185 256  00  00  00  164  164    0---...
 17CL0 0 145  00  00  00  00  00  206  212    0-.....
 18C 0 0 165 192 231  00  00  00  143  140    0---...
 19C 1 0 182 201  00  00  00  00  101  140    0--....
 20C 1 0 191 212  00  00  00  00   80  116    0--....
 21C 0 0 202 221 245  00  00  00  101   92    0---...
 22C 1 0 211 232  00  00  00  00  143   92    0--....
 23C 1 0 181 222  00  00  00  00  164  116    0--....
 24CL0 0 215  00  00  00  00  00   80   68    0-.....
 25O 0 0 166  00  00  00  00  00  164  192    0-.....
8       24  C17ClH14N3O2S        1                   
  1C 0 0  22 141 165  00  00  00  206  164    0---...
  2C 0 0  12  31 155  00  00  00  227  140    0---...
  3C 1 0  21  42  00  00  00  00  269  140    0--....
  4C 0 0  32  55 131  00  00  00  290  164    0---...
  5N 0 0  45  61 121  00  00  00  332  164    0---...
  6C 0 0  51  76  81  00  00  00  353  140    0---...
  7O 0 0  66  00  00  00  00  00  332  116    0-.....
  8N 1 0  61  91  00  00  00  00  395  140    0--....
  9C 0 0  81 106 111  00  00  00  416  164    0---...
 10O 0 0  96  00  00  00  00  00  458  164    0-.....
 11C 1 0  91 122  00  00  00  00  395  188    0--....
 12N 0 0  51 112  00  00  00  00  353  188    0--....
 13C 1 0  41 142  00  00  00  00  269  188    0--....
 14C 0 0  11 132 175  00  00  00  227  188    0---...
 15C 3 0  25  00  00  00  00  00  206  116    0-.....
 16S 0 0  15 185  00  00  00  00  164  164    0--....
 17C 3 0 145  00  00  00  00  00  206  212    0-.....
 18C 0 0 165 192 231  00  00  00  143  140    0---...
 19C 1 0 182 201  00  00  00  00  101  140    0--....
 20C 1 0 191 212  00  00  00  00   80  116    0--....
 21C 0 0 202 221 245  00  00  00  101   92    0---...
 22C 1 0 211 232  00  00  00  00  143   92    0--....
 23C 1 0 181 222  00  00  00  00  164  116    0--....
 24CL0 0 215  00  00  00  00  00   80   68    0-.....
9       26  C17ClH14N3O4S        1                   
  1C 0 0  22 141 165  00  00  00  206  164    0---...
  2C 0 0  12  31 155  00  00  00  227  140    0---...
  3C 1 0  21  42  00  00  00  00  269  140    0--....
  4C 0 0  32  55 131  00  00  00  290  164    0---...
  5N 0 0  45  61 121  00  00  00  332  164    0---...
  6C 0 0  51  76  81  00  00  00  353  140    0---...
  7O 0 0  66  00  00  00  00  00  332  116    0-.....
  8N 1 0  61  91  00  00  00  00  395  140    0--....
  9C 0 0  81 106 111  00  00  00  416  164    0---...
 10O 0 0  96  00  00  00  00  00  458  164    0-.....
 11C 1 0  91 122  00  00  00  00  395  188    0--....
 12N 0 0  51 112  00  00  00  00  353  188    0--....
 13C 1 0  41 142  00  00  00  00  269  188    0--....
 14C 0 0  11 132 175  00  00  00  227  188    0---...
 15C 3 0  25  00  00  00  00  00  206  116    0-.....
 16S 0 0  15 185 256 266  00  00  164  164    0----..
 17C 3 0 145  00  00  00  00  00  206  212    0-.....
 18C 0 0 165 192 231  00  00  00  143  140    0---...
 19C 1 0 182 201  00  00  00  00  101  140    0--....
 20C 1 0 191 212  00  00  00  00   80  116    0--....
 21C 0 0 202 221 245  00  00  00  101   92    0---...
 22C 1 0 211 232  00  00  00  00  143   92    0--....
 23C 1 0 181 222  00  00  00  00  164  116    0--....
 24CL0 0 215  00  00  00  00  00   80   68    0-.....
 25O 0 0 166  00  00  00  00  00  128  178    0-.....
 26O 0 0 166  00  00  00  00  00  164  192    0-.....
10      25  C17ClH14N3O3S        1                   
  1C 0 0  22 141 165  00  00  00  206  164    0---...
  2C 0 0  12  31 155  00  00  00  227  140    0---...
  3C 1 0  21  42  00  00  00  00  269  140    0--....
  4C 0 0  32  55 131  00  00  00  290  164    0---...
  5N 0 0  45  61 121  00  00  00  332  164    0---...
  6C 0 0  51  76  81  00  00  00  353  140    0---...
  7O 0 0  66  00  00  00  00  00  332  116    0-.....
  8N 1 0  61  91  00  00  00  00  395  140    0--....
  9C 0 0  81 106 111  00  00  00  416  164    0---...
 10O 0 0  96  00  00  00  00  00  458  164    0-.....
 11C 1 0  91 122  00  00  00  00  395  188    0--....
 12N 0 0  51 112  00  00  00  00  353  188    0--....
 13C 1 0  41 142  00  00  00  00  269  188    0--....
 14C 0 0  11 132 175  00  00  00  227  188    0---...
 15C 3 0  25  00  00  00  00  00  206  116    0-.....
 16S 0 0  15 185 256  00  00  00  164  164    0---...
 17C 3 0 145  00  00  00  00  00  206  212    0-.....
 18C 0 0 165 192 231  00  00  00  143  140    0---...
 19C 1 0 182 201  00  00  00  00  101  140    0--....
 20C 1 0 191 212  00  00  00  00   80  116    0--....
 21C 0 0 202 221 245  00  00  00  101   92    0---...
 22C 1 0 211 232  00  00  00  00  143   92    0--....
 23C 1 0 181 222  00  00  00  00  164  116    0--....
 24CL0 0 215  00  00  00  00  00   80   68    0-.....
 25O 0 0 166  00  00  00  00  00  164  192    0-.....
11      26  C19H19N3O3S          1                   
  1C 0 0  22 141 165  00  00  00  206  164    0---...
  2C 0 0  12  31 155  00  00  00  227  140    0---...
  3C 1 0  21  42  00  00  00  00  269  140    0--....
  4C 0 0  32  55 131  00  00  00  290  164    0---...
  5N 0 0  45  61 121  00  00  00  332  164    0---...
  6C 0 0  51  76  81  00  00  00  353  140    0---...
  7O 0 0  66  00  00  00  00  00  332  116    0-.....
  8N 1 0  61  91  00  00  00  00  395  140    0--....
  9C 0 0  81 106 111  00  00  00  416  164    0---...
 10O 0 0  96  00  00  00  00  00  458  164    0-.....
 11C 1 0  91 122  00  00  00  00  395  188    0--....
 12N 0 0  51 112  00  00  00  00  353  188    0--....
 13C 1 0  41 142  00  00  00  00  269  188    0--....
 14C 0 0  11 132 175  00  00  00  227  188    0---...
 15C 3 0  25  00  00  00  00  00  206  116    0-.....
 16O 0 0  15 185  00  00  00  00  164  164    0--....
 17C 3 0 145  00  00  00  00  00  206  212    0-.....
 18C 0 0 165 192 231  00  00  00  143  140    0---...
 19C 1 0 182 201  00  00  00  00  101  140    0--....
 20C 0 0 191 212 255  00  00  00   80  116    0---...
 21C 0 0 202 221 245  00  00  00  101   92    0---...
 22C 1 0 211 232  00  00  00  00  143   92    0--....
 23C 1 0 181 222  00  00  00  00  164  116    0--....
 24S 0 0 215 265  00  00  00  00   80   68    0--....
 25C 3 0 205  00  00  00  00  00   38  116    0-.....
 26C 3 0 245  00  00  00  00  00   38   68    0-.....
12      26  C18ClH14N3O4         1                   
  1C 0 0  22 141 165  00  00  00  206  164    0---...
  2C 0 0  12  31 155  00  00  00  227  140    0---...
  3C 1 0  21  42  00  00  00  00  269  140    0--....
  4C 0 0  32  55 131  00  00  00  290  164    0---...
  5N 0 0  45  61 121  00  00  00  332  164    0---...
  6C 0 0  51  76  81  00  00  00  353  140    0---...
  7O 0 0  66  00  00  00  00  00  332  116    0-.....
  8N 1 0  61  91  00  00  00  00  395  140    0--....
  9C 0 0  81 106 111  00  00  00  416  164    0---...
 10O 0 0  96  00  00  00  00  00  458  164    0-.....
 11C 1 0  91 122  00  00  00  00  395  188    0--....
 12N 0 0  51 112  00  00  00  00  353  188    0--....
 13C 1 0  41 142  00  00  00  00  269  188    0--....
 14C 0 0  11 132 175  00  00  00  227  188    0---...
 15CL0 0  25  00  00  00  00  00  206  116    0-.....
 16O 0 0  15 185  00  00  00  00  164  164    0--....
 17C 3 0 145  00  00  00  00  00  206  212    0-.....
 18C 0 0 165 192 231  00  00  00  143  140    0---...
 19C 1 0 182 201  00  00  00  00  101  140    0--....
 20C 1 0 191 212  00  00  00  00   80  116    0--....
 21C 0 0 202 221 245  00  00  00  101   92    0---...
 22C 1 0 211 232  00  00  00  00  143   92    0--....
 23C 1 0 181 222  00  00  00  00  164  116    0--....
 24C 0 0 215 256 265  00  00  00   80   68    0---...
 25O 0 0 246  00  00  00  00  00   38   68    0-.....
 26C 3 0 245  00  00  00  00  00  101   44    0-.....
13      26  C18ClH16N3O4         1                   
  1C 0 0  22 141 165  00  00  00  206  164    0---...
  2C 0 0  12  31 155  00  00  00  227  140    0---...
  3C 1 0  21  42  00  00  00  00  269  140    0--....
  4C 0 0  32  55 131  00  00  00  290  164    0---...
  5N 0 0  45  61 121  00  00  00  332  164    0---...
  6C 0 0  51  76  81  00  00  00  353  140    0---...
  7O 0 0  66  00  00  00  00  00  332  116    0-.....
  8N 1 0  61  91  00  00  00  00  395  140    0--....
  9C 0 0  81 106 111  00  00  00  416  164    0---...
 10O 0 0  96  00  00  00  00  00  458  164    0-.....
 11C 1 0  91 122  00  00  00  00  395  188    0--....
 12N 0 0  51 112  00  00  00  00  353  188    0--....
 13C 1 0  41 142  00  00  00  00  269  188    0--....
 14C 0 0  11 132 175  00  00  00  227  188    0---...
 15CL0 0  25  00  00  00  00  00  206  116    0-.....
 16O 0 0  15 185  00  00  00  00  164  164    0--....
 17C 3 0 145  00  00  00  00  00  206  212    0-.....
 18C 0 0 165 192 231  00  00  00  143  140    0---...
 19C 1 0 182 201  00  00  00  00  101  140    0--....
 20C 1 0 191 212  00  00  00  00   80  116    0--....
 21C 0 0 202 221 245  00  00  00  101   92    0---...
 22C 1 0 211 232  00  00  00  00  143   92    0--....
 23C 1 0 181 222  00  00  00  00  164  116    0--....
 24C 1 0 215 255 265  00  00  00   80   68    0---...
 25O 1 0 245  00  00  00  00  00   38   68    0-.....
 26C 3 0 245  00  00  00  00  00  101   44    0-.....
14      23  C15Cl2H9N3O2S        1                   
  1C 0 0  22 141 165  00  00  00  206  164    0---...
  2C 0 0  12  31 155  00  00  00  227  140    0---...
  3C 1 0  21  42  00  00  00  00  269  140    0--....
  4C 0 0  32  55 131  00  00  00  290  164    0---...
  5N 0 0  45  61 121  00  00  00  332  164    0---...
  6C 0 0  51  76  81  00  00  00  353  140    0---...
  7O 0 0  66  00  00  00  00  00  332  116    0-.....
  8N 1 0  61  91  00  00  00  00  395  140    0--....
  9C 0 0  81 106 111  00  00  00  416  164    0---...
 10O 0 0  96  00  00  00  00  00  458  164    0-.....
 11C 1 0  91 122  00  00  00  00  395  188    0--....
 12N 0 0  51 112  00  00  00  00  353  188    0--....
 13C 1 0  41 142  00  00  00  00  269  188    0--....
 14C 1 0  11 132  00  00  00  00  227  188    0--....
 15CL0 0  25  00  00  00  00  00  206  116    0-.....
 16S 0 0  15 175  00  00  00  00  164  164    0--....
 17C 0 0 165 182 221  00  00  00  143  140    0---...
 18C 1 0 172 191  00  00  00  00  101  140    0--....
 19C 1 0 181 202  00  00  00  00   80  116    0--....
 20C 0 0 192 211 235  00  00  00  101   92    0---...
 21C 1 0 201 222  00  00  00  00  143   92    0--....
 22C 1 0 171 212  00  00  00  00  164  116    0--....
 23CL0 0 205  00  00  00  00  00   80   68    0-.....
15      24  C16Cl2H11N3O3        1                   
  1C 0 0  22 141 165  00  00  00  206  164    0---...
  2C 0 0  12  31 155  00  00  00  227  140    0---...
  3C 1 0  21  42  00  00  00  00  269  140    0--....
  4C 0 0  32  55 131  00  00  00  290  164    0---...
  5N 0 0  45  61 121  00  00  00  332  164    0---...
  6C 0 0  51  76  81  00  00  00  353  140    0---...
  7O 0 0  66  00  00  00  00  00  332  116    0-.....
  8N 1 0  61  91  00  00  00  00  395  140    0--....
  9C 0 0  81 106 111  00  00  00  416  164    0---...
 10O 0 0  96  00  00  00  00  00  458  164    0-.....
 11C 1 0  91 122  00  00  00  00  395  188    0--....
 12N 0 0  51 112  00  00  00  00  353  188    0--....
 13C 1 0  41 142  00  00  00  00  269  188    0--....
 14C 1 0  11 132  00  00  00  00  227  188    0--....
 15CL0 0  25  00  00  00  00  00  206  116    0-.....
 16C 1 0  15 175 245  00  00  00  164  164    0---...
 17C 0 0 165 182 221  00  00  00  143  140    0---...
 18C 1 0 172 191  00  00  00  00  101  140    0--....
 19C 1 0 181 202  00  00  00  00   80  116    0--....
 20C 0 0 192 211 235  00  00  00  101   92    0---...
 21C 1 0 201 222  00  00  00  00  143   92    0--....
 22C 1 0 171 212  00  00  00  00  164  116    0--....
 23CL0 0 205  00  00  00  00  00   80   68    0-.....
 24O 1 0 165  00  00  00  00  00  143  188    0-.....
16      25  C18H17N3O3S          1                   
  1C 0 0  22 141 165  00  00  00  206  164    0---...
  2C 0 0  12  31 155  00  00  00  227  140    0---...
  3C 1 0  21  42  00  00  00  00  269  140    0--....
  4C 0 0  32  55 131  00  00  00  290  164    0---...
  5N 0 0  45  61 121  00  00  00  332  164    0---...
  6C 0 0  51  76  81  00  00  00  353  140    0---...
  7O 0 0  66  00  00  00  00  00  332  116    0-.....
  8N 1 0  61  91  00  00  00  00  395  140    0--....
  9C 0 0  81 106 111  00  00  00  416  164    0---...
 10O 0 0  96  00  00  00  00  00  458  164    0-.....
 11C 1 0  91 122  00  00  00  00  395  188    0--....
 12N 0 0  51 112  00  00  00  00  353  188    0--....
 13C 1 0  41 142  00  00  00  00  269  188    0--....
 14C 0 0  11 132 245  00  00  00  227  188    0---...
 15C 3 0  25  00  00  00  00  00  206  116    0-.....
 16O 0 0  15 175  00  00  00  00  164  164    0--....
 17C 0 0 165 182 221  00  00  00  143  140    0---...
 18C 1 0 172 191  00  00  00  00  101  140    0--....
 19C 1 0 181 202  00  00  00  00   80  116    0--....
 20C 0 0 192 211 235  00  00  00  101   92    0---...
 21C 1 0 201 222  00  00  00  00  143   92    0--....
 22C 1 0 171 212  00  00  00  00  164  116    0--....
 23S 0 0 205 255  00  00  00  00   80   68    0--....
 24C 3 0 145  00  00  00  00  00  206  212    0-.....
 25C 3 0 235  00  00  00  00  00   38   68    0-.....
17      24  C17H15N3O3S          1                   
  1C 0 0  22 141 165  00  00  00  206  164    0---...
  2C 0 0  12  31 155  00  00  00  227  140    0---...
  3C 1 0  21  42  00  00  00  00  269  140    0--....
  4C 0 0  32  55 131  00  00  00  290  164    0---...
  5N 0 0  45  61 121  00  00  00  332  164    0---...
  6C 0 0  51  76  81  00  00  00  353  140    0---...
  7O 0 0  66  00  00  00  00  00  332  116    0-.....
  8N 1 0  61  91  00  00  00  00  395  140    0--....
  9C 0 0  81 106 111  00  00  00  416  164    0---...
 10O 0 0  96  00  00  00  00  00  458  164    0-.....
 11C 1 0  91 122  00  00  00  00  395  188    0--....
 12N 0 0  51 112  00  00  00  00  353  188    0--....
 13C 1 0  41 142  00  00  00  00  269  188    0--....
 14C 1 0  11 132  00  00  00  00  227  188    0--....
 15C 3 0  25  00  00  00  00  00  206  116    0-.....
 16O 0 0  15 175  00  00  00  00  164  164    0--....
 17C 0 0 165 182 221  00  00  00  143  140    0---...
 18C 1 0 172 191  00  00  00  00  101  140    0--....
 19C 1 0 181 202  00  00  00  00   80  116    0--....
 20C 0 0 192 211 235  00  00  00  101   92    0---...
 21C 1 0 201 222  00  00  00  00  143   92    0--....
 22C 1 0 171 212  00  00  00  00  164  116    0--....
 23S 0 0 205 245  00  00  00  00   80   68    0--....
 24C 3 0 235  00  00  00  00  00   38   68    0-.....
18      31  C19Cl2H18N4O5S       1                   
  1C 0 0  22 141 165  00  00  00  206  164    0---...
  2C 0 0  12  31 155  00  00  00  227  140    0---...
  3C 1 0  21  42  00  00  00  00  269  140    0--....
  4C 0 0  32  55 131  00  00  00  290  164    0---...
  5N 0 0  45  61 121  00  00  00  332  164    0---...
  6C 0 0  51  76  81  00  00  00  353  140    0---...
  7O 0 0  66  00  00  00  00  00  332  116    0-.....
  8N 1 0  61  91  00  00  00  00  395  140    0--....
  9C 0 0  81 106 111  00  00  00  416  164    0---...
 10O 0 0  96  00  00  00  00  00  458  164    0-.....
 11C 1 0  91 122  00  00  00  00  395  188    0--....
 12N 0 0  51 112  00  00  00  00  353  188    0--....
 13C 1 0  41 142  00  00  00  00  269  188    0--....
 14C 0 0  11 132 255  00  00  00  227  188    0---...
 15CL0 0  25  00  00  00  00  00  206  116    0-.....
 16O 0 0  15 175  00  00  00  00  164  164    0--....
 17C 0 0 165 182 221  00  00  00  143  140    0---...
 18C 0 0 172 191 265  00  00  00  101  140    0---...
 19C 1 0 181 202  00  00  00  00   80  116    0--....
 20C 0 0 192 211 235  00  00  00  101   92    0---...
 21C 1 0 201 222  00  00  00  00  143   92    0--....
 22C 1 0 171 212  00  00  00  00  164  116    0--....
 23S 0 0 205 246 276 285  00  00   80   68    0----..
 24O 0 0 236  00  00  00  00  00   38   68    0-.....
 25C 3 0 145  00  00  00  00  00  206  212    0-.....
 26CL0 0 185  00  00  00  00  00   80  164    0-.....
 27O 0 0 236  00  00  00  00  00  122   68    0-.....
 28N 0 0 235 295 305  00  00  00   80   40    0---...
 29C 3 0 285  00  00  00  00  00   44   26    0-.....
 30C 2 0 285 315  00  00  00  00  116   26    0--....
 31C 3 0 305  00  00  00  00  00  158   26    0-.....
19      24  C16Cl2H11N3O3        1                   
  1C 0 0  22 141 165  00  00  00  206  164    0---...
  2C 0 0  12  31 155  00  00  00  227  140    0---...
  3C 1 0  21  42  00  00  00  00  269  140    0--....
  4C 0 0  32  55 131  00  00  00  290  164    0---...
  5N 0 0  45  61 121  00  00  00  332  164    0---...
  6C 0 0  51  76  81  00  00  00  353  140    0---...
  7O 0 0  66  00  00  00  00  00  332  116    0-.....
  8N 1 0  61  91  00  00  00  00  395  140    0--....
  9C 0 0  81 106 111  00  00  00  416  164    0---...
 10O 0 0  96  00  00  00  00  00  458  164    0-.....
 11C 1 0  91 122  00  00  00  00  395  188    0--....
 12N 0 0  51 112  00  00  00  00  353  188    0--....
 13C 1 0  41 142  00  00  00  00  269  188    0--....
 14C 0 0  11 132 175  00  00  00  227  188    0---...
 15CL0 0  25  00  00  00  00  00  206  116    0-.....
 16O 0 0  15 185  00  00  00  00  164  164    0--....
 17C 3 0 145  00  00  00  00  00  206  212    0-.....
 18C 0 0 165 192 231  00  00  00  143  140    0---...
 19C 1 0 182 201  00  00  00  00  101  140    0--....
 20C 1 0 191 212  00  00  00  00   80  116    0--....
 21C 0 0 202 221 245  00  00  00  101   92    0---...
 22C 1 0 211 232  00  00  00  00  143   92    0--....
 23C 1 0 181 222  00  00  00  00  164  116    0--....
 24CL0 0 215  00  00  00  00  00   80   68    0-.....
20      24  C16ClH12N3O3S        1                   
  1C 0 0  22 141 165  00  00  00  206  164    0---...
  2C 0 0  12  31 155  00  00  00  227  140    0---...
  3C 1 0  21  42  00  00  00  00  269  140    0--....
  4C 0 0  32  55 131  00  00  00  290  164    0---...
  5N 0 0  45  61 121  00  00  00  332  164    0---...
  6C 0 0  51  76  81  00  00  00  353  140    0---...
  7O 0 0  66  00  00  00  00  00  332  116    0-.....
  8N 1 0  61  91  00  00  00  00  395  140    0--....
  9C 0 0  81 106 111  00  00  00  416  164    0---...
 10O 0 0  96  00  00  00  00  00  458  164    0-.....
 11C 1 0  91 122  00  00  00  00  395  188    0--....
 12N 0 0  51 112  00  00  00  00  353  188    0--....
 13C 1 0  41 142  00  00  00  00  269  188    0--....
 14C 1 0  11 132  00  00  00  00  227  188    0--....
 15CL0 0  25  00  00  00  00  00  206  116    0-.....
 16O 0 0  15 175  00  00  00  00  164  164    0--....
 17C 0 0 165 182 221  00  00  00  143  140    0---...
 18C 1 0 172 191  00  00  00  00  101  140    0--....
 19C 1 0 181 202  00  00  00  00   80  116    0--....
 20C 0 0 192 211 235  00  00  00  101   92    0---...
 21C 1 0 201 222  00  00  00  00  143   92    0--....
 22C 1 0 171 212  00  00  00  00  164  116    0--....
 23S 0 0 205 245  00  00  00  00   80   68    0--....
 24C 3 0 235  00  00  00  00  00   38   68    0-.....
21      26  C17H15N3O5S          1                   
  1C 0 0  22 141 165  00  00  00  206  164    0---...
  2C 0 0  12  31 155  00  00  00  227  140    0---...
  3C 1 0  21  42  00  00  00  00  269  140    0--....
  4C 0 0  32  55 131  00  00  00  290  164    0---...
  5N 0 0  45  61 121  00  00  00  332  164    0---...
  6C 0 0  51  76  81  00  00  00  353  140    0---...
  7O 0 0  66  00  00  00  00  00  332  116    0-.....
  8N 1 0  61  91  00  00  00  00  395  140    0--....
  9C 0 0  81 106 111  00  00  00  416  164    0---...
 10O 0 0  96  00  00  00  00  00  458  164    0-.....
 11C 1 0  91 122  00  00  00  00  395  188    0--....
 12N 0 0  51 112  00  00  00  00  353  188    0--....
 13C 1 0  41 142  00  00  00  00  269  188    0--....
 14C 1 0  11 132  00  00  00  00  227  188    0--....
 15C 3 0  25  00  00  00  00  00  206  116    0-.....
 16O 0 0  15 175  00  00  00  00  164  164    0--....
 17C 0 0 165 182 221  00  00  00  143  140    0---...
 18C 1 0 172 191  00  00  00  00  101  140    0--....
 19C 1 0 181 202  00  00  00  00   80  116    0--....
 20C 0 0 192 211 235  00  00  00  101   92    0---...
 21C 1 0 201 222  00  00  00  00  143   92    0--....
 22C 1 0 171 212  00  00  00  00  164  116    0--....
 23S 0 0 205 245 256 266  00  00   80   68    0----..
 24C 3 0 235  00  00  00  00  00   38   68    0-.....
 25O 0 0 236  00  00  00  00  00   80   40    0-.....
 26O 0 0 236  00  00  00  00  00  116   54    0-.....
22      24  C15ClH10N3O4S        1                   
  1C 0 0  22 141 155  00  00  00  206  164    0---...
  2C 1 0  12  31  00  00  00  00  227  140    0--....
  3C 1 0  21  42  00  00  00  00  269  140    0--....
  4C 0 0  32  55 131  00  00  00  290  164    0---...
  5N 0 0  45  61 121  00  00  00  332  164    0---...
  6C 0 0  51  76  81  00  00  00  353  140    0---...
  7O 0 0  66  00  00  00  00  00  332  116    0-.....
  8N 1 0  61  91  00  00  00  00  395  140    0--....
  9C 0 0  81 106 111  00  00  00  416  164    0---...
 10O 0 0  96  00  00  00  00  00  458  164    0-.....
 11C 1 0  91 122  00  00  00  00  395  188    0--....
 12N 0 0  51 112  00  00  00  00  353  188    0--....
 13C 1 0  41 142  00  00  00  00  269  188    0--....
 14C 1 0  11 132  00  00  00  00  227  188    0--....
 15S 0 0  15 165 236 246  00  00  164  164    0----..
 16C 0 0 155 172 211  00  00  00  143  140    0---...
 17C 1 0 162 181  00  00  00  00  101  140    0--....
 18C 1 0 171 192  00  00  00  00   80  116    0--....
 19C 0 0 182 201 225  00  00  00  101   92    0---...
 20C 1 0 191 212  00  00  00  00  143   92    0--....
 21C 1 0 161 202  00  00  00  00  164  116    0--....
 22CL0 0 195  00  00  00  00  00   80   68    0-.....
 23O 0 0 156  00  00  00  00  00  128  178    0-.....
 24O 0 0 156  00  00  00  00  00  164  192    0-.....
23      16  C9Cl2H5N3O2          1                   
  1C 1 0  22 141  00  00  00  00  206  164    0--....
  2C 0 0  12  31 155  00  00  00  227  140    0---...
  3C 1 0  21  42  00  00  00  00  269  140    0--....
  4C 0 0  32  55 131  00  00  00  290  164    0---...
  5N 0 0  45  61 121  00  00  00  332  164    0---...
  6C 0 0  51  76  81  00  00  00  353  140    0---...
  7O 0 0  66  00  00  00  00  00  332  116    0-.....
  8N 1 0  61  91  00  00  00  00  395  140    0--....
  9C 0 0  81 106 111  00  00  00  416  164    0---...
 10O 0 0  96  00  00  00  00  00  458  164    0-.....
 11C 1 0  91 122  00  00  00  00  395  188    0--....
 12N 0 0  51 112  00  00  00  00  353  188    0--....
 13C 1 0  41 142  00  00  00  00  269  188    0--....
 14C 0 0  11 132 165  00  00  00  227  188    0---...
 15CL0 0  25  00  00  00  00  00  206  116    0-.....
 16CL0 0 145  00  00  00  00  00  206  212    0-.....
24      23  C15ClH9IN3O3         1                   
  1C 0 0  22 141 165  00  00  00  206  164    0---...
  2C 0 0  12  31 155  00  00  00  227  140    0---...
  3C 1 0  21  42  00  00  00  00  269  140    0--....
  4C 0 0  32  55 131  00  00  00  290  164    0---...
  5N 0 0  45  61 121  00  00  00  332  164    0---...
  6C 0 0  51  76  81  00  00  00  353  140    0---...
  7O 0 0  66  00  00  00  00  00  332  116    0-.....
  8N 1 0  61  91  00  00  00  00  395  140    0--....
  9C 0 0  81 106 111  00  00  00  416  164    0---...
 10O 0 0  96  00  00  00  00  00  458  164    0-.....
 11C 1 0  91 122  00  00  00  00  395  188    0--....
 12N 0 0  51 112  00  00  00  00  353  188    0--....
 13C 1 0  41 142  00  00  00  00  269  188    0--....
 14C 1 0  11 132  00  00  00  00  227  188    0--....
 15CL0 0  25  00  00  00  00  00  206  116    0-.....
 16O 0 0  15 175  00  00  00  00  164  164    0--....
 17C 0 0 165 182 221  00  00  00  143  140    0---...
 18C 1 0 172 191  00  00  00  00  101  140    0--....
 19C 1 0 181 202  00  00  00  00   80  116    0--....
 20C 0 0 192 211 235  00  00  00  101   92    0---...
 21C 1 0 201 222  00  00  00  00  143   92    0--....
 22C 1 0 171 212  00  00  00  00  164  116    0--....
 23I 0 0 205  00  00  00  00  00   80   68    0-.....
25      27  BrC19ClH11N3O3       1                   
  1C 0 0  22 141 165  00  00  00  206  164    0---...
  2C 0 0  12  31 155  00  00  00  227  140    0---...
  3C 1 0  21  42  00  00  00  00  269  140    0--....
  4C 0 0  32  55 131  00  00  00  290  164    0---...
  5N 0 0  45  61 121  00  00  00  332  164    0---...
  6C 0 0  51  76  81  00  00  00  353  140    0---...
  7O 0 0  66  00  00  00  00  00  332  116    0-.....
  8N 1 0  61  91  00  00  00  00  395  140    0--....
  9C 0 0  81 106 111  00  00  00  416  164    0---...
 10O 0 0  96  00  00  00  00  00  458  164    0-.....
 11C 1 0  91 122  00  00  00  00  395  188    0--....
 12N 0 0  51 112  00  00  00  00  353  188    0--....
 13C 1 0  41 142  00  00  00  00  269  188    0--....
 14C 1 0  11 132  00  00  00  00  227  188    0--....
 15CL0 0  25  00  00  00  00  00  206  116    0-.....
 16O 0 0  15 175  00  00  00  00  164  164    0--....
 17C 0 0 165 182 221  00  00  00  143  140    0---...
 18C 1 0 172 191  00  00  00  00  101  140    0--....
 19C 0 0 181 202 231  00  00  00   80  116    0---...
 20C 0 0 192 211 261  00  00  00  101   92    0---...
 21C 1 0 201 222  00  00  00  00  143   92    0--....
 22C 1 0 171 212  00  00  00  00  164  116    0--....
 23C 1 0 191 242  00  00  00  00   38  116    0--....
 24C 1 0 232 251  00  00  00  00   17   92    0--....
 25C 1 0 241 262  00  00  00  00   38   68    0--....
 26C 0 0 201 252 275  00  00  00   80   68    0---...
 27BR0 0 265  00  00  00  00  00  101   44    0-.....
26      24  BrC15H10N3O4S        1                   
  1C 0 0  22 141 155  00  00  00  206  164    0---...
  2C 1 0  12  31  00  00  00  00  227  140    0--....
  3C 1 0  21  42  00  00  00  00  269  140    0--....
  4C 0 0  32  55 131  00  00  00  290  164    0---...
  5N 0 0  45  61 121  00  00  00  332  164    0---...
  6C 0 0  51  76  81  00  00  00  353  140    0---...
  7O 0 0  66  00  00  00  00  00  332  116    0-.....
  8N 1 0  61  91  00  00  00  00  395  140    0--....
  9C 0 0  81 106 111  00  00  00  416  164    0---...
 10O 0 0  96  00  00  00  00  00  458  164    0-.....
 11C 1 0  91 122  00  00  00  00  395  188    0--....
 12N 0 0  51 112  00  00  00  00  353  188    0--....
 13C 1 0  41 142  00  00  00  00  269  188    0--....
 14C 1 0  11 132  00  00  00  00  227  188    0--....
 15S 0 0  15 165 236 246  00  00  164  164    0----..
 16C 0 0 155 172 211  00  00  00  143  140    0---...
 17C 1 0 162 181  00  00  00  00  101  140    0--....
 18C 1 0 171 192  00  00  00  00   80  116    0--....
 19C 0 0 182 201 225  00  00  00  101   92    0---...
 20C 1 0 191 212  00  00  00  00  143   92    0--....
 21C 1 0 161 202  00  00  00  00  164  116    0--....
 22BR0 0 195  00  00  00  00  00   80   68    0-.....
 23O 0 0 156  00  00  00  00  00  128  178    0-.....
 24O 0 0 156  00  00  00  00  00  164  192    0-.....
27      24  C15Cl3H8N3O3         1                   
  1C 0 0  22 141 155  00  00  00  206  164    0---...
  2C 0 0  12  31 235  00  00  00  227  140    0---...
  3C 1 0  21  42  00  00  00  00  269  140    0--....
  4C 0 0  32  55 131  00  00  00  290  164    0---...
  5N 0 0  45  61 121  00  00  00  332  164    0---...
  6C 0 0  51  76  81  00  00  00  353  140    0---...
  7O 0 0  66  00  00  00  00  00  332  116    0-.....
  8N 1 0  61  91  00  00  00  00  395  140    0--....
  9C 0 0  81 106 111  00  00  00  416  164    0---...
 10O 0 0  96  00  00  00  00  00  458  164    0-.....
 11C 1 0  91 122  00  00  00  00  395  188    0--....
 12N 0 0  51 112  00  00  00  00  353  188    0--....
 13C 1 0  41 142  00  00  00  00  269  188    0--....
 14C 1 0  11 132  00  00  00  00  227  188    0--....
 15O 0 0  15 165  00  00  00  00  164  164    0--....
 16C 0 0 155 172 211  00  00  00  143  140    0---...
 17C 0 0 162 181 245  00  00  00  101  140    0---...
 18C 1 0 171 192  00  00  00  00   80  116    0--....
 19C 0 0 182 201 225  00  00  00  101   92    0---...
 20C 1 0 191 212  00  00  00  00  143   92    0--....
 21C 1 0 161 202  00  00  00  00  164  116    0--....
 22CL0 0 195  00  00  00  00  00   80   68    0-.....
 23CL0 0  25  00  00  00  00  00  206  116    0-.....
 24CL0 0 175  00  00  00  00  00   80  164    0-.....
28      26  C16Cl2H11N3O4S       1                   
  1C 0 0  22 141 155  00  00  00  206  164    0---...
  2C 0 0  12  31 255  00  00  00  227  140    0---...
  3C 1 0  21  42  00  00  00  00  269  140    0--....
  4C 0 0  32  55 131  00  00  00  290  164    0---...
  5N 0 0  45  61 121  00  00  00  332  164    0---...
  6C 0 0  51  76  81  00  00  00  353  140    0---...
  7O 0 0  66  00  00  00  00  00  332  116    0-.....
  8N 1 0  61  91  00  00  00  00  395  140    0--....
  9C 0 0  81 106 111  00  00  00  416  164    0---...
 10O 0 0  96  00  00  00  00  00  458  164    0-.....
 11C 1 0  91 122  00  00  00  00  395  188    0--....
 12N 0 0  51 112  00  00  00  00  353  188    0--....
 13C 1 0  41 142  00  00  00  00  269  188    0--....
 14C 0 0  11 132 265  00  00  00  227  188    0---...
 15S 0 0  15 165 236 246  00  00  164  164    0----..
 16C 0 0 155 172 211  00  00  00  143  140    0---...
 17C 1 0 162 181  00  00  00  00  101  140    0--....
 18C 1 0 171 192  00  00  00  00   80  116    0--....
 19C 0 0 182 201 225  00  00  00  101   92    0---...
 20C 1 0 191 212  00  00  00  00  143   92    0--....
 21C 1 0 161 202  00  00  00  00  164  116    0--....
 22CL0 0 195  00  00  00  00  00   80   68    0-.....
 23O 0 0 156  00  00  00  00  00  128  178    0-.....
 24O 0 0 156  00  00  00  00  00  164  192    0-.....
 25CL0 0  25  00  00  00  00  00  206  116    0-.....
 26C 3 0 145  00  00  00  00  00  206  212    0-.....
29      23  BrC16H12N3O3         1                   
  1C 0 0  22 141 165  00  00  00  206  164    0---...
  2C 0 0  12  31 155  00  00  00  227  140    0---...
  3C 1 0  21  42  00  00  00  00  269  140    0--....
  4C 0 0  32  55 131  00  00  00  290  164    0---...
  5N 0 0  45  61 121  00  00  00  332  164    0---...
  6C 0 0  51  76  81  00  00  00  353  140    0---...
  7O 0 0  66  00  00  00  00  00  332  116    0-.....
  8N 1 0  61  91  00  00  00  00  395  140    0--....
  9C 0 0  81 106 111  00  00  00  416  164    0---...
 10O 0 0  96  00  00  00  00  00  458  164    0-.....
 11C 1 0  91 122  00  00  00  00  395  188    0--....
 12N 0 0  51 112  00  00  00  00  353  188    0--....
 13C 1 0  41 142  00  00  00  00  269  188    0--....
 14C 1 0  11 132  00  00  00  00  227  188    0--....
 15C 3 0  25  00  00  00  00  00  206  116    0-.....
 16O 0 0  15 175  00  00  00  00  164  164    0--....
 17C 0 0 165 182 221  00  00  00  143  140    0---...
 18C 1 0 172 191  00  00  00  00  101  140    0--....
 19C 1 0 181 202  00  00  00  00   80  116    0--....
 20C 0 0 192 211 235  00  00  00  101   92    0---...
 21C 1 0 201 222  00  00  00  00  143   92    0--....
 22C 1 0 171 212  00  00  00  00  164  116    0--....
 23BR0 0 205  00  00  00  00  00   80   68    0-.....
30      24  C16Cl2H11N3O3        1                   
  1C 0 0  22 141 165  00  00  00  206  164    0---...
  2C 0 0  12  31 155  00  00  00  227  140    0---...
  3C 1 0  21  42  00  00  00  00  269  140    0--....
  4C 0 0  32  55 131  00  00  00  290  164    0---...
  5N 0 0  45  61 121  00  00  00  332  164    0---...
  6C 0 0  51  76  81  00  00  00  353  140    0---...
  7O 0 0  66  00  00  00  00  00  332  116    0-.....
  8N 1 0  61  91  00  00  00  00  395  140    0--....
  9C 0 0  81 106 111  00  00  00  416  164    0---...
 10O 0 0  96  00  00  00  00  00  458  164    0-.....
 11C 1 0  91 122  00  00  00  00  395  188    0--....
 12N 0 0  51 112  00  00  00  00  353  188    0--....
 13C 1 0  41 142  00  00  00  00  269  188    0--....
 14C 1 0  11 132  00  00  00  00  227  188    0--....
 15C 3 0  25  00  00  00  00  00  206  116    0-.....
 16O 0 0  15 175  00  00  00  00  164  164    0--....
 17C 0 0 165 182 221  00  00  00  143  140    0---...
 18C 0 0 172 191 245  00  00  00  101  140    0---...
 19C 1 0 181 202  00  00  00  00   80  116    0--....
 20C 0 0 192 211 235  00  00  00  101   92    0---...
 21C 1 0 201 222  00  00  00  00  143   92    0--....
 22C 1 0 171 212  00  00  00  00  164  116    0--....
 23CL0 0 205  00  00  00  00  00   80   68    0-.....
 24CL0 0 185  00  00  00  00  00   80  164    0-.....
31      23  C16Cl2H11N3O2        1                   
  1C 0 0  22 141 165  00  00  00  206  164    0---...
  2C 0 0  12  31 155  00  00  00  227  140    0---...
  3C 1 0  21  42  00  00  00  00  269  140    0--....
  4C 0 0  32  55 131  00  00  00  290  164    0---...
  5N 0 0  45  61 121  00  00  00  332  164    0---...
  6C 0 0  51  76  81  00  00  00  353  140    0---...
  7O 0 0  66  00  00  00  00  00  332  116    0-.....
  8N 1 0  61  91  00  00  00  00  395  140    0--....
  9C 0 0  81 106 111  00  00  00  416  164    0---...
 10O 0 0  96  00  00  00  00  00  458  164    0-.....
 11C 1 0  91 122  00  00  00  00  395  188    0--....
 12N 0 0  51 112  00  00  00  00  353  188    0--....
 13C 1 0  41 142  00  00  00  00  269  188    0--....
 14C 1 0  11 132  00  00  00  00  227  188    0--....
 15CL0 0  25  00  00  00  00  00  206  116    0-.....
 16C 2 0  15 175  00  00  00  00  164  164    0--....
 17C 0 0 165 182 221  00  00  00  143  140    0---...
 18C 1 0 172 191  00  00  00  00  101  140    0--....
 19C 1 0 181 202  00  00  00  00   80  116    0--....
 20C 0 0 192 211 235  00  00  00  101   92    0---...
 21C 1 0 201 222  00  00  00  00  143   92    0--....
 22C 1 0 171 212  00  00  00  00  164  116    0--....
 23CL0 0 205  00  00  00  00  00   80   68    0-.....
32      31  C19Cl2H16N4O5S       1                   
  1C 0 0  22 141 165  00  00  00  206  164    0---...
  2C 0 0  12  31 155  00  00  00  227  140    0---...
  3C 1 0  21  42  00  00  00  00  269  140    0--....
  4C 0 0  32  55 131  00  00  00  290  164    0---...
  5N 0 0  45  61 121  00  00  00  332  164    0---...
  6C 0 0  51  76  81  00  00  00  353  140    0---...
  7O 0 0  66  00  00  00  00  00  332  116    0-.....
  8N 1 0  61  91  00  00  00  00  395  140    0--....
  9C 0 0  81 106 111  00  00  00  416  164    0---...
 10O 0 0  96  00  00  00  00  00  458  164    0-.....
 11C 1 0  91 122  00  00  00  00  395  188    0--....
 12N 0 0  51 112  00  00  00  00  353  188    0--....
 13C 1 0  41 142  00  00  00  00  269  188    0--....
 14C 0 0  11 132 315  00  00  00  227  188    0---...
 15CL0 0  25  00  00  00  00  00  206  116    0-.....
 16O 0 0  15 175  00  00  00  00  164  164    0--....
 17C 0 0 165 182 221  00  00  00  143  140    0---...
 18C 0 0 172 191 245  00  00  00  101  140    0---...
 19C 1 0 181 202  00  00  00  00   80  116    0--....
 20C 0 0 192 211 235  00  00  00  101   92    0---...
 21C 1 0 201 222  00  00  00  00  143   92    0--....
 22C 1 0 171 212  00  00  00  00  164  116    0--....
 23S 0 0 205 256 265 306  00  00   80   68    0----..
 24CL0 0 185  00  00  00  00  00   80  164    0-.....
 25O 0 0 236  00  00  00  00  00   38   68    0-.....
 26N 1 0 235 275  00  00  00  00   80   40    0--....
 27C 1 0 265 281 291  00  00  00  116   26    0---...
 28C 2 0 271 291  00  00  00  00  152   40    0--....
 29C 2 0 281 271  00  00  00  00  152   12    0--....
 30O 0 0 236  00  00  00  00  00  122   68    0-.....
 31C 3 0 145  00  00  00  00  00  206  212    0-.....
33      25  C15H18N4O5S          1                   
  1C 0 0  22 141 165  00  00  00  206  164    0---...
  2C 0 0  12  31 155  00  00  00  227  140    0---...
  3C 1 0  21  42  00  00  00  00  269  140    0--....
  4C 0 0  32  55 131  00  00  00  290  164    0---...
  5N 0 0  45  61 121  00  00  00  332  164    0---...
  6C 0 0  51  76  81  00  00  00  353  140    0---...
  7O 0 0  66  00  00  00  00  00  332  116    0-.....
  8N 1 0  61  91  00  00  00  00  395  140    0--....
  9C 0 0  81 106 111  00  00  00  416  164    0---...
 10O 0 0  96  00  00  00  00  00  458  164    0-.....
 11C 1 0  91 122  00  00  00  00  395  188    0--....
 12N 0 0  51 112  00  00  00  00  353  188    0--....
 13C 1 0  41 142  00  00  00  00  269  188    0--....
 14C 0 0  11 132 175  00  00  00  227  188    0---...
 15C 3 0  25  00  00  00  00  00  206  116    0-.....
 16S 0 0  15 185 246 256  00  00  164  164    0----..
 17C 3 0 145  00  00  00  00  00  206  212    0-.....
 18N 0 0 165 191 231  00  00  00  143  140    0---...
 19C 2 0 181 201  00  00  00  00  101  140    0--....
 20C 2 0 191 211  00  00  00  00   80  116    0--....
 21O 0 0 201 221  00  00  00  00  101   92    0--....
 22C 2 0 211 231  00  00  00  00  143   92    0--....
 23C 2 0 181 221  00  00  00  00  164  116    0--....
 24O 0 0 166  00  00  00  00  00  128  178    0-.....
 25O 0 0 166  00  00  00  00  00  164  192    0-.....
34      25  C18ClH14N3O3         1                   
  1C 0 0  22 141 165  00  00  00  206  164    0---...
  2C 0 0  12  31 155  00  00  00  227  140    0---...
  3C 1 0  21  42  00  00  00  00  269  140    0--....
  4C 0 0  32  55 131  00  00  00  290  164    0---...
  5N 0 0  45  61 121  00  00  00  332  164    0---...
  6C 0 0  51  76  81  00  00  00  353  140    0---...
  7O 0 0  66  00  00  00  00  00  332  116    0-.....
  8N 1 0  61  91  00  00  00  00  395  140    0--....
  9C 0 0  81 106 111  00  00  00  416  164    0---...
 10O 0 0  96  00  00  00  00  00  458  164    0-.....
 11C 1 0  91 122  00  00  00  00  395  188    0--....
 12N 0 0  51 112  00  00  00  00  353  188    0--....
 13C 1 0  41 142  00  00  00  00  269  188    0--....
 14C 0 0  11 132 175  00  00  00  227  188    0---...
 15C 3 0  25  00  00  00  00  00  206  116    0-.....
 16C 0 0  15 185 256  00  00  00  164  164    0---...
 17C 3 0 145  00  00  00  00  00  206  212    0-.....
 18C 0 0 165 192 231  00  00  00  143  140    0---...
 19C 1 0 182 201  00  00  00  00  101  140    0--....
 20C 1 0 191 212  00  00  00  00   80  116    0--....
 21C 0 0 202 221 245  00  00  00  101   92    0---...
 22C 1 0 211 232  00  00  00  00  143   92    0--....
 23C 1 0 181 222  00  00  00  00  164  116    0--....
 24CL0 0 215  00  00  00  00  00   80   68    0-.....
 25O 0 0 166  00  00  00  00  00  164  192    0-.....
35      19  BrC10F3H5N3O2        1                   
  1C 0 0  22 141 195  00  00  00  206  164    0---...
  2C 0 0  12  31 155  00  00  00  227  140    0---...
  3C 1 0  21  42  00  00  00  00  269  140    0--....
  4C 0 0  32  55 131  00  00  00  290  164    0---...
  5N 0 0  45  61 121  00  00  00  332  164    0---...
  6C 0 0  51  76  81  00  00  00  353  140    0---...
  7O 0 0  66  00  00  00  00  00  332  116    0-.....
  8N 1 0  61  91  00  00  00  00  395  140    0--....
  9C 0 0  81 106 111  00  00  00  416  164    0---...
 10O 0 0  96  00  00  00  00  00  458  164    0-.....
 11C 1 0  91 122  00  00  00  00  395  188    0--....
 12N 0 0  51 112  00  00  00  00  353  188    0--....
 13C 1 0  41 142  00  00  00  00  269  188    0--....
 14C 1 0  11 132  00  00  00  00  227  188    0--....
 15C 0 0  25 165 175 185  00  00  206  116    0----..
 16F 0 0 155  00  00  00  00  00  164  116    0-.....
 17F 0 0 155  00  00  00  00  00  227   92    0-.....
 18F 0 0 155  00  00  00  00  00  185   92    0-.....
 19BR0 0  15  00  00  00  00  00  164  164    0-.....
36      19  C10F4H5N3O2          1                   
  1C 0 0  22 141 195  00  00  00  206  164    0---...
  2C 0 0  12  31 155  00  00  00  227  140    0---...
  3C 1 0  21  42  00  00  00  00  269  140    0--....
  4C 0 0  32  55 131  00  00  00  290  164    0---...
  5N 0 0  45  61 121  00  00  00  332  164    0---...
  6C 0 0  51  76  81  00  00  00  353  140    0---...
  7O 0 0  66  00  00  00  00  00  332  116    0-.....
  8N 1 0  61  91  00  00  00  00  395  140    0--....
  9C 0 0  81 106 111  00  00  00  416  164    0---...
 10O 0 0  96  00  00  00  00  00  458  164    0-.....
 11C 1 0  91 122  00  00  00  00  395  188    0--....
 12N 0 0  51 112  00  00  00  00  353  188    0--....
 13C 1 0  41 142  00  00  00  00  269  188    0--....
 14C 1 0  11 132  00  00  00  00  227  188    0--....
 15C 0 0  25 165 175 185  00  00  206  116    0----..
 16F 0 0 155  00  00  00  00  00  164  116    0-.....
 17F 0 0 155  00  00  00  00  00  227   92    0-.....
 18F 0 0 155  00  00  00  00  00  185   92    0-.....
 19F 0 0  15  00  00  00  00  00  164  164    0-.....
37      16  C10ClH8N3O2          1                   
  1C 1 0  22 141  00  00  00  00  206  164    0--....
  2C 0 0  12  31 155  00  00  00  227  140    0---...
  3C 1 0  21  42  00  00  00  00  269  140    0--....
  4C 0 0  32  55 131  00  00  00  290  164    0---...
  5N 0 0  45  61 121  00  00  00  332  164    0---...
  6C 0 0  51  76  81  00  00  00  353  140    0---...
  7O 0 0  66  00  00  00  00  00  332  116    0-.....
  8N 1 0  61  91  00  00  00  00  395  140    0--....
  9C 0 0  81 106 111  00  00  00  416  164    0---...
 10O 0 0  96  00  00  00  00  00  458  164    0-.....
 11C 1 0  91 122  00  00  00  00  395  188    0--....
 12N 0 0  51 112  00  00  00  00  353  188    0--....
 13C 1 0  41 142  00  00  00  00  269  188    0--....
 14C 0 0  11 132 165  00  00  00  227  188    0---...
 15CL0 0  25  00  00  00  00  00  206  116    0-.....
 16C 3 0 145  00  00  00  00  00  206  212    0-.....
38      25  C13Cl2H12N4O5S       1                   
  1C 0 0  22 141 165  00  00  00  206  164    0---...
  2C 0 0  12  31 155  00  00  00  227  140    0---...
  3C 1 0  21  42  00  00  00  00  269  140    0--....
  4C 0 0  32  55 131  00  00  00  290  164    0---...
  5N 0 0  45  61 121  00  00  00  332  164    0---...
  6C 0 0  51  76  81  00  00  00  353  140    0---...
  7O 0 0  66  00  00  00  00  00  332  116    0-.....
  8N 1 0  61  91  00  00  00  00  395  140    0--....
  9C 0 0  81 106 111  00  00  00  416  164    0---...
 10O 0 0  96  00  00  00  00  00  458  164    0-.....
 11C 1 0  91 122  00  00  00  00  395  188    0--....
 12N 0 0  51 112  00  00  00  00  353  188    0--....
 13C 1 0  41 142  00  00  00  00  269  188    0--....
 14C 0 0  11 132 175  00  00  00  227  188    0---...
 15CL0 0  25  00  00  00  00  00  206  116    0-.....
 16S 0 0  15 185 246 256  00  00  164  164    0----..
 17CL0 0 145  00  00  00  00  00  206  212    0-.....
 18N 0 0 165 191 231  00  00  00  143  140    0---...
 19C 2 0 181 201  00  00  00  00  101  140    0--....
 20C 2 0 191 211  00  00  00  00   80  116    0--....
 21O 0 0 201 221  00  00  00  00  101   92    0--....
 22C 2 0 211 231  00  00  00  00  143   92    0--....
 23C 2 0 181 221  00  00  00  00  164  116    0--....
 24O 0 0 166  00  00  00  00  00  128  178    0-.....
 25O 0 0 166  00  00  00  00  00  164  192    0-.....
39      24  C13ClH13N4O5S        1                   
  1C 0 0  22 141 165  00  00  00  206  164    0---...
  2C 0 0  12  31 155  00  00  00  227  140    0---...
  3C 1 0  21  42  00  00  00  00  269  140    0--....
  4C 0 0  32  55 131  00  00  00  290  164    0---...
  5N 0 0  45  61 121  00  00  00  332  164    0---...
  6C 0 0  51  76  81  00  00  00  353  140    0---...
  7O 0 0  66  00  00  00  00  00  332  116    0-.....
  8N 1 0  61  91  00  00  00  00  395  140    0--....
  9C 0 0  81 106 111  00  00  00  416  164    0---...
 10O 0 0  96  00  00  00  00  00  458  164    0-.....
 11C 1 0  91 122  00  00  00  00  395  188    0--....
 12N 0 0  51 112  00  00  00  00  353  188    0--....
 13C 1 0  41 142  00  00  00  00  269  188    0--....
 14C 1 0  11 132  00  00  00  00  227  188    0--....
 15CL0 0  25  00  00  00  00  00  206  116    0-.....
 16S 0 0  15 175 236 246  00  00  164  164    0----..
 17N 0 0 165 181 221  00  00  00  143  140    0---...
 18C 2 0 171 191  00  00  00  00  101  140    0--....
 19C 2 0 181 201  00  00  00  00   80  116    0--....
 20O 0 0 191 211  00  00  00  00  101   92    0--....
 21C 2 0 201 221  00  00  00  00  143   92    0--....
 22C 2 0 171 211  00  00  00  00  164  116    0--....
 23O 0 0 166  00  00  00  00  00  128  178    0-.....
 24O 0 0 166  00  00  00  00  00  164  192    0-.....
40      23  C15H11N3O4S          1                   
  1C 0 0  22 141 155  00  00  00  206  164    0---...
  2C 1 0  12  31  00  00  00  00  227  140    0--....
  3C 1 0  21  42  00  00  00  00  269  140    0--....
  4C 0 0  32  55 131  00  00  00  290  164    0---...
  5N 0 0  45  61 121  00  00  00  332  164    0---...
  6C 0 0  51  76  81  00  00  00  353  140    0---...
  7O 0 0  66  00  00  00  00  00  332  116    0-.....
  8N 1 0  61  91  00  00  00  00  395  140    0--....
  9C 0 0  81 106 111  00  00  00  416  164    0---...
 10O 0 0  96  00  00  00  00  00  458  164    0-.....
 11C 1 0  91 122  00  00  00  00  395  188    0--....
 12N 0 0  51 112  00  00  00  00  353  188    0--....
 13C 1 0  41 142  00  00  00  00  269  188    0--....
 14C 1 0  11 132  00  00  00  00  227  188    0--....
 15S 0 0  15 165 226 236  00  00  164  164    0----..
 16C 0 0 155 172 211  00  00  00  143  140    0---...
 17C 1 0 162 181  00  00  00  00  101  140    0--....
 18C 1 0 171 192  00  00  00  00   80  116    0--....
 19C 1 0 182 201  00  00  00  00  101   92    0--....
 20C 1 0 191 212  00  00  00  00  143   92    0--....
 21C 1 0 161 202  00  00  00  00  164  116    0--....
 22O 0 0 156  00  00  00  00  00  128  178    0-.....
 23O 0 0 156  00  00  00  00  00  164  192    0-.....
41      23  C17H15N3O3           1                   
  1C 0 0  22 141 155  00  00  00  206  164    0---...
  2C 0 0  12  31 235  00  00  00  227  140    0---...
  3C 1 0  21  42  00  00  00  00  269  140    0--....
  4C 0 0  32  55 131  00  00  00  290  164    0---...
  5N 0 0  45  61 121  00  00  00  332  164    0---...
  6C 0 0  51  76  81  00  00  00  353  140    0---...
  7O 0 0  66  00  00  00  00  00  332  116    0-.....
  8N 1 0  61  91  00  00  00  00  395  140    0--....
  9C 0 0  81 106 111  00  00  00  416  164    0---...
 10O 0 0  96  00  00  00  00  00  458  164    0-.....
 11C 1 0  91 122  00  00  00  00  395  188    0--....
 12N 0 0  51 112  00  00  00  00  353  188    0--....
 13C 1 0  41 142  00  00  00  00  269  188    0--....
 14C 1 0  11 132  00  00  00  00  227  188    0--....
 15C 1 0  15 165 225  00  00  00  164  164    0---...
 16C 0 0 155 172 211  00  00  00  143  140    0---...
 17C 1 0 162 181  00  00  00  00  101  140    0--....
 18C 1 0 171 192  00  00  00  00   80  116    0--....
 19C 1 0 182 201  00  00  00  00  101   92    0--....
 20C 1 0 191 212  00  00  00  00  143   92    0--....
 21C 1 0 161 202  00  00  00  00  164  116    0--....
 22O 1 0 155  00  00  00  00  00  164  192    0-.....
 23C 3 0  25  00  00  00  00  00  206  116    0-.....
42      18  C10F3H6N3O2          1                   
  1C 1 0  22 141  00  00  00  00  206  164    0--....
  2C 0 0  12  31 155  00  00  00  227  140    0---...
  3C 1 0  21  42  00  00  00  00  269  140    0--....
  4C 0 0  32  55 131  00  00  00  290  164    0---...
  5N 0 0  45  61 121  00  00  00  332  164    0---...
  6C 0 0  51  76  81  00  00  00  353  140    0---...
  7O 0 0  66  00  00  00  00  00  332  116    0-.....
  8N 1 0  61  91  00  00  00  00  395  140    0--....
  9C 0 0  81 106 111  00  00  00  416  164    0---...
 10O 0 0  96  00  00  00  00  00  458  164    0-.....
 11C 1 0  91 122  00  00  00  00  395  188    0--....
 12N 0 0  51 112  00  00  00  00  353  188    0--....
 13C 1 0  41 142  00  00  00  00  269  188    0--....
 14C 1 0  11 132  00  00  00  00  227  188    0--....
 15C 0 0  25 165 175 185  00  00  206  116    0----..
 16F 0 0 155  00  00  00  00  00  164  116    0-.....
 17F 0 0 155  00  00  00  00  00  227   92    0-.....
 18F 0 0 155  00  00  00  00  00  185   92    0-.....
43      16  C11H11N3O2           1                   
  1C 1 0  22 141  00  00  00  00  206  164    0--....
  2C 0 0  12  31 155  00  00  00  227  140    0---...
  3C 1 0  21  42  00  00  00  00  269  140    0--....
  4C 0 0  32  55 131  00  00  00  290  164    0---...
  5N 0 0  45  61 121  00  00  00  332  164    0---...
  6C 0 0  51  76  81  00  00  00  353  140    0---...
  7O 0 0  66  00  00  00  00  00  332  116    0-.....
  8N 1 0  61  91  00  00  00  00  395  140    0--....
  9C 0 0  81 106 111  00  00  00  416  164    0---...
 10O 0 0  96  00  00  00  00  00  458  164    0-.....
 11C 1 0  91 122  00  00  00  00  395  188    0--....
 12N 0 0  51 112  00  00  00  00  353  188    0--....
 13C 1 0  41 142  00  00  00  00  269  188    0--....
 14C 0 0  11 132 165  00  00  00  227  188    0---...
 15C 3 0  25  00  00  00  00  00  206  116    0-.....
 16C 3 0 145  00  00  00  00  00  206  212    0-.....
44      16  C10H6N4O2            1                   
  1C 1 0  22 141  00  00  00  00  206  164    0--....
  2C 0 0  12  31 155  00  00  00  227  140    0---...
  3C 1 0  21  42  00  00  00  00  269  140    0--....
  4C 0 0  32  55 131  00  00  00  290  164    0---...
  5N 0 0  45  61 121  00  00  00  332  164    0---...
  6C 0 0  51  76  81  00  00  00  353  140    0---...
  7O 0 0  66  00  00  00  00  00  332  116    0-.....
  8N 1 0  61  91  00  00  00  00  395  140    0--....
  9C 0 0  81 106 111  00  00  00  416  164    0---...
 10O 0 0  96  00  00  00  00  00  458  164    0-.....
 11C 1 0  91 122  00  00  00  00  395  188    0--....
 12N 0 0  51 112  00  00  00  00  353  188    0--....
 13C 1 0  41 142  00  00  00  00  269  188    0--....
 14C 1 0  11 132  00  00  00  00  227  188    0--....
 15C 0 0  25 167  00  00  00  00  206  116    0--....
 16N 0 0 157  00  00  00  00  00  185   92    0-.....
45      23  C16ClH12N3O3         1                   
  1C 0 0  22 141 165  00  00  00  206  164    0---...
  2C 0 0  12  31 155  00  00  00  227  140    0---...
  3C 1 0  21  42  00  00  00  00  269  140    0--....
  4C 0 0  32  55 131  00  00  00  290  164    0---...
  5N 0 0  45  61 121  00  00  00  332  164    0---...
  6C 0 0  51  76  81  00  00  00  353  140    0---...
  7O 0 0  66  00  00  00  00  00  332  116    0-.....
  8N 1 0  61  91  00  00  00  00  395  140    0--....
  9C 0 0  81 106 111  00  00  00  416  164    0---...
 10O 0 0  96  00  00  00  00  00  458  164    0-.....
 11C 1 0  91 122  00  00  00  00  395  188    0--....
 12N 0 0  51 112  00  00  00  00  353  188    0--....
 13C 1 0  41 142  00  00  00  00  269  188    0--....
 14C 1 0  11 132  00  00  00  00  227  188    0--....
 15C 3 0  25  00  00  00  00  00  206  116    0-.....
 16O 0 0  15 175  00  00  00  00  164  164    0--....
 17C 0 0 165 182 221  00  00  00  143  140    0---...
 18C 1 0 172 191  00  00  00  00  101  140    0--....
 19C 1 0 181 202  00  00  00  00   80  116    0--....
 20C 0 0 192 211 235  00  00  00  101   92    0---...
 21C 1 0 201 222  00  00  00  00  143   92    0--....
 22C 1 0 171 212  00  00  00  00  164  116    0--....
 23CL0 0 205  00  00  00  00  00   80   68    0-.....
46      26  C19ClH12N3O2S        1                   
  1C 0 0  22 141 165  00  00  00  206  164    0---...
  2C 0 0  12  31 155  00  00  00  227  140    0---...
  3C 1 0  21  42  00  00  00  00  269  140    0--....
  4C 0 0  32  55 131  00  00  00  290  164    0---...
  5N 0 0  45  61 121  00  00  00  332  164    0---...
  6C 0 0  51  76  81  00  00  00  353  140    0---...
  7O 0 0  66  00  00  00  00  00  332  116    0-.....
  8N 1 0  61  91  00  00  00  00  395  140    0--....
  9C 0 0  81 106 111  00  00  00  416  164    0---...
 10O 0 0  96  00  00  00  00  00  458  164    0-.....
 11C 1 0  91 122  00  00  00  00  395  188    0--....
 12N 0 0  51 112  00  00  00  00  353  188    0--....
 13C 1 0  41 142  00  00  00  00  269  188    0--....
 14C 1 0  11 132  00  00  00  00  227  188    0--....
 15CL0 0  25  00  00  00  00  00  206  116    0-.....
 16S 0 0  15 175  00  00  00  00  164  164    0--....
 17C 0 0 165 182 221  00  00  00  143  140    0---...
 18C 1 0 172 191  00  00  00  00  101  140    0--....
 19C 0 0 181 202 231  00  00  00   80  116    0---...
 20C 0 0 192 211 261  00  00  00  101   92    0---...
 21C 1 0 201 222  00  00  00  00  143   92    0--....
 22C 1 0 171 212  00  00  00  00  164  116    0--....
 23C 1 0 191 242  00  00  00  00   38  116    0--....
 24C 1 0 232 251  00  00  00  00   17   92    0--....
 25C 1 0 241 262  00  00  00  00   38   68    0--....
 26C 1 0 201 252  00  00  00  00   80   68    0--....
47      15  C9ClH6N3O2           1                   
  1C 1 0  22 141  00  00  00  00  206  164    0--....
  2C 0 0  12  31 155  00  00  00  227  140    0---...
  3C 1 0  21  42  00  00  00  00  269  140    0--....
  4C 0 0  32  55 131  00  00  00  290  164    0---...
  5N 0 0  45  61 121  00  00  00  332  164    0---...
  6C 0 0  51  76  81  00  00  00  353  140    0---...
  7O 0 0  66  00  00  00  00  00  332  116    0-.....
  8N 1 0  61  91  00  00  00  00  395  140    0--....
  9C 0 0  81 106 111  00  00  00  416  164    0---...
 10O 0 0  96  00  00  00  00  00  458  164    0-.....
 11C 1 0  91 122  00  00  00  00  395  188    0--....
 12N 0 0  51 112  00  00  00  00  353  188    0--....
 13C 1 0  41 142  00  00  00  00  269  188    0--....
 14C 1 0  11 132  00  00  00  00  227  188    0--....
 15CL0 0  25  00  00  00  00  00  206  116    0-.....
48      18  C10Cl2H7N3O3         1                   
  1C 0 0  22 141 165  00  00  00  206  164    0---...
  2C 0 0  12  31 155  00  00  00  227  140    0---...
  3C 1 0  21  42  00  00  00  00  269  140    0--....
  4C 0 0  32  55 131  00  00  00  290  164    0---...
  5N 0 0  45  61 121  00  00  00  332  164    0---...
  6C 0 0  51  76  81  00  00  00  353  140    0---...
  7O 0 0  66  00  00  00  00  00  332  116    0-.....
  8N 1 0  61  91  00  00  00  00  395  140    0--....
  9C 0 0  81 106 111  00  00  00  416  164    0---...
 10O 0 0  96  00  00  00  00  00  458  164    0-.....
 11C 1 0  91 122  00  00  00  00  395  188    0--....
 12N 0 0  51 112  00  00  00  00  353  188    0--....
 13C 1 0  41 142  00  00  00  00  269  188    0--....
 14C 0 0  11 132 185  00  00  00  227  188    0---...
 15CL0 0  25  00  00  00  00  00  206  116    0-.....
 16O 0 0  15 175  00  00  00  00  164  164    0--....
 17C 3 0 165  00  00  00  00  00  143  140    0-.....
 18CL0 0 145  00  00  00  00  00  206  212    0-.....
49      17  C9H6N4O4             1                   
  1C 0 0  22 141 155  00  00  00  206  164    0---...
  2C 1 0  12  31  00  00  00  00  227  140    0--....
  3C 1 0  21  42  00  00  00  00  269  140    0--....
  4C 0 0  32  55 131  00  00  00  290  164    0---...
  5N 0 0  45  61 121  00  00  00  332  164    0---...
  6C 0 0  51  76  81  00  00  00  353  140    0---...
  7O 0 0  66  00  00  00  00  00  332  116    0-.....
  8N 1 0  61  91  00  00  00  00  395  140    0--....
  9C 0 0  81 106 111  00  00  00  416  164    0---...
 10O 0 0  96  00  00  00  00  00  458  164    0-.....
 11C 1 0  91 122  00  00  00  00  395  188    0--....
 12N 0 0  51 112  00  00  00  00  353  188    0--....
 13C 1 0  41 142  00  00  00  00  269  188    0--....
 14C 1 0  11 132  00  00  00  00  227  188    0--....
 15N 0 1  15 166 175  00  00  00  164  164    0---...
 16O 0 0 156  00  00  00  00  00  143  140    0-.....
 17O 0-1 155  00  00  00  00  00  143  188    0-.....
50      21  C15H11N3O3           1                   
  1C 0 0  22 141 155  00  00  00  206  164    0---...
  2C 1 0  12  31  00  00  00  00  227  140    0--....
  3C 1 0  21  42  00  00  00  00  269  140    0--....
  4C 0 0  32  55 131  00  00  00  290  164    0---...
  5N 0 0  45  61 121  00  00  00  332  164    0---...
  6C 0 0  51  76  81  00  00  00  353  140    0---...
  7O 0 0  66  00  00  00  00  00  332  116    0-.....
  8N 1 0  61  91  00  00  00  00  395  140    0--....
  9C 0 0  81 106 111  00  00  00  416  164    0---...
 10O 0 0  96  00  00  00  00  00  458  164    0-.....
 11C 1 0  91 122  00  00  00  00  395  188    0--....
 12N 0 0  51 112  00  00  00  00  353  188    0--....
 13C 1 0  41 142  00  00  00  00  269  188    0--....
 14C 1 0  11 132  00  00  00  00  227  188    0--....
 15O 0 0  15 165  00  00  00  00  164  164    0--....
 16C 0 0 155 172 211  00  00  00  143  140    0---...
 17C 1 0 162 181  00  00  00  00  101  140    0--....
 18C 1 0 171 192  00  00  00  00   80  116    0--....
 19C 1 0 182 201  00  00  00  00  101   92    0--....
 20C 1 0 191 212  00  00  00  00  143   92    0--....
 21C 1 0 161 202  00  00  00  00  164  116    0--....
51      18  C10H9N3O4S           1                   
  1C 0 0  22 141 155  00  00  00  206  164    0---...
  2C 1 0  12  31  00  00  00  00  227  140    0--....
  3C 1 0  21  42  00  00  00  00  269  140    0--....
  4C 0 0  32  55 131  00  00  00  290  164    0---...
  5N 0 0  45  61 121  00  00  00  332  164    0---...
  6C 0 0  51  76  81  00  00  00  353  140    0---...
  7O 0 0  66  00  00  00  00  00  332  116    0-.....
  8N 1 0  61  91  00  00  00  00  395  140    0--....
  9C 0 0  81 106 111  00  00  00  416  164    0---...
 10O 0 0  96  00  00  00  00  00  458  164    0-.....
 11C 1 0  91 122  00  00  00  00  395  188    0--....
 12N 0 0  51 112  00  00  00  00  353  188    0--....
 13C 1 0  41 142  00  00  00  00  269  188    0--....
 14C 1 0  11 132  00  00  00  00  227  188    0--....
 15S 0 0  15 165 176 186  00  00  164  164    0----..
 16C 3 0 155  00  00  00  00  00  143  140    0-.....
 17O 0 0 156  00  00  00  00  00  128  178    0-.....
 18O 0 0 156  00  00  00  00  00  164  192    0-.....
52      18  C11H11N3O4           1                   
  1C 1 0  22 141  00  00  00  00  206  164    0--....
  2C 0 0  12  31 155  00  00  00  227  140    0---...
  3C 1 0  21  42  00  00  00  00  269  140    0--....
  4C 0 0  32  55 131  00  00  00  290  164    0---...
  5N 0 0  45  61 121  00  00  00  332  164    0---...
  6C 0 0  51  76  81  00  00  00  353  140    0---...
  7O 0 0  66  00  00  00  00  00  332  116    0-.....
  8N 1 0  61  91  00  00  00  00  395  140    0--....
  9C 0 0  81 106 111  00  00  00  416  164    0---...
 10O 0 0  96  00  00  00  00  00  458  164    0-.....
 11C 1 0  91 122  00  00  00  00  395  188    0--....
 12N 0 0  51 112  00  00  00  00  353  188    0--....
 13C 1 0  41 142  00  00  00  00  269  188    0--....
 14C 0 0  11 132 175  00  00  00  227  188    0---...
 15O 0 0  25 165  00  00  00  00  206  116    0--....
 16C 3 0 155  00  00  00  00  00  164  116    0-.....
 17O 0 0 145 185  00  00  00  00  206  212    0--....
 18C 3 0 175  00  00  00  00  00  164  212    0-.....
53      14  C9H7N3O2             1                   
  1C 1 0  22 141  00  00  00  00  206  164    0--....
  2C 1 0  12  31  00  00  00  00  227  140    0--....
  3C 1 0  21  42  00  00  00  00  269  140    0--....
  4C 0 0  32  55 131  00  00  00  290  164    0---...
  5N 0 0  45  61 121  00  00  00  332  164    0---...
  6C 0 0  51  76  81  00  00  00  353  140    0---...
  7O 0 0  66  00  00  00  00  00  332  116    0-.....
  8N 1 0  61  91  00  00  00  00  395  140    0--....
  9C 0 0  81 106 111  00  00  00  416  164    0---...
 10O 0 0  96  00  00  00  00  00  458  164    0-.....
 11C 1 0  91 122  00  00  00  00  395  188    0--....
 12N 0 0  51 112  00  00  00  00  353  188    0--....
 13C 1 0  41 142  00  00  00  00  269  188    0--....
 14C 1 0  11 132  00  00  00  00  227  188    0--....
54      20  C12H13N3O5           1                   
  1C 0 0  22 141 195  00  00  00  206  164    0---...
  2C 0 0  12  31 155  00  00  00  227  140    0---...
  3C 1 0  21  42  00  00  00  00  269  140    0--....
  4C 0 0  32  55 131  00  00  00  290  164    0---...
  5N 0 0  45  61 121  00  00  00  332  164    0---...
  6C 0 0  51  76  81  00  00  00  353  140    0---...
  7O 0 0  66  00  00  00  00  00  332  116    0-.....
  8N 1 0  61  91  00  00  00  00  395  140    0--....
  9C 0 0  81 106 111  00  00  00  416  164    0---...
 10O 0 0  96  00  00  00  00  00  458  164    0-.....
 11C 1 0  91 122  00  00  00  00  395  188    0--....
 12N 0 0  51 112  00  00  00  00  353  188    0--....
 13C 1 0  41 142  00  00  00  00  269  188    0--....
 14C 0 0  11 132 175  00  00  00  227  188    0---...
 15O 0 0  25 165  00  00  00  00  206  116    0--....
 16C 3 0 155  00  00  00  00  00  164  116    0-.....
 17O 0 0 145 185  00  00  00  00  206  212    0--....
 18C 3 0 175  00  00  00  00  00  164  212    0-.....
 19O 0 0  15 205  00  00  00  00  164  164    0--....
 20C 3 0 195  00  00  00  00  00  122  164    0-.....
